@<TRIPOS>MOLECULE
ZINC03852217
   70    75     0     0     0
SMALL
USER_CHARGES
octamethylBLAHdione
@<TRIPOS>ATOM
      1 C1          0.3763    5.0147   -0.9082 C.3       1 <0>        -0.1473
      2 C2          0.7961    4.8329    0.5639 C.3       1 <0>         0.0284
      3 C3          1.4059    3.4247    0.6064 C.ar      1 <0>        -0.0717
      4 C4          0.5149    2.3219    0.3718 C.ar      1 <0>        -0.1166
      5 C5          1.0429    1.0002    0.4656 C.ar      1 <0>        -0.1199
      6 C6          2.3834    0.7760    0.6374 C.ar      1 <0>        -0.1132
      7 C7          3.2227    1.9144    0.7643 C.ar      1 <0>        -0.1024
      8 C8          2.7793    3.1793    0.7667 C.ar      1 <0>        -0.0622
      9 C9          3.7254    4.3415    0.9082 C.3       1 <0>         0.0127
     10 C10         3.0518    5.6074    1.0990 C.2       1 <0>         0.1771
     11 C11         1.7160    5.8861    0.9476 C.2       1 <0>        -0.1184
     12 C12         1.2586    7.1621    1.2584 C.2       1 <0>        -0.0989
     13 C13         2.0821    8.1898    1.8051 C.2       1 <0>        -0.0882
     14 C14         1.5363    9.2638    2.4090 C.2       1 <0>        -0.1352
     15 C15         0.2677    9.6100    2.2376 C.2       1 <0>         0.1499
     16 O1         -0.4945    8.7978    1.4209 O.3       1 <0>        -0.2933
     17 C16        -0.1037    7.6773    0.8671 C.2       1 <0>         0.5233
     18 O2         -0.8441    7.1820    0.0723 O.2       1 <0>        -0.4235
     19 C17        -0.4969   10.8423    2.7416 C.3       1 <0>         0.0087
     20 C18         0.4701   11.8751    3.2967 C.3       1 <0>        -0.0588
     21 H1          1.0876   12.3244    2.3642 H         1 <0>         0.0987
     22 C19        -0.2225   12.9362    4.0342 C.2       1 <0>        -0.1442
     23 C20         0.4948   13.7308    4.9219 C.2       1 <0>        -0.1297
     24 C21         1.8894   13.3356    5.2502 C.2       1 <0>        -0.1220
     25 C22         2.3922   12.2316    4.8352 C.2       1 <0>        -0.1226
     26 C23         1.5341   11.1660    4.1820 C.3       1 <0>        -0.0584
     27 H2          0.9732   10.5465    4.9882 H         1 <0>         0.0889
     28 C24         2.3897   10.1944    3.3489 C.3       1 <0>         0.0197
     29 C25         3.3119   10.9999    2.5638 C.3       1 <0>        -0.1590
     30 C26         3.0911    9.3313    4.3953 C.3       1 <0>        -0.1522
     31 C27        -1.3364   11.4567    1.5566 C.3       1 <0>        -0.1387
     32 C28        -1.4688   10.4063    3.8504 C.3       1 <0>        -0.1451
     33 C29         3.5445    7.8355    1.8219 C.2       1 <0>         0.5220
     34 O3          4.4214    8.6766    1.9294 O.2       1 <0>        -0.4257
     35 O4          3.8547    6.5755    1.5751 O.3       1 <0>        -0.2772
     36 C30         4.6919    3.9886    2.0777 C.3       1 <0>        -0.1345
     37 C31         4.5596    4.4266   -0.4196 C.3       1 <0>        -0.1358
     38 C32        -0.4745    4.7200    1.4491 C.3       1 <0>        -0.1389
     39 H3         -0.4755    4.3702   -1.1254 H         1 <0>         0.0652
     40 H4          0.0986    6.0545   -1.0810 H         1 <0>         0.0842
     41 H5          1.2090    4.7481   -1.5590 H         1 <0>         0.0520
     42 H6         -0.5627    2.4643    0.2670 H         1 <0>         0.1366
     43 H7          0.3376    0.1790    0.2859 H         1 <0>         0.1227
     44 H8          2.7497   -0.1676    0.6902 H         1 <0>         0.1244
     45 H9          4.2312    1.6588    0.8984 H         1 <0>         0.1157
     46 H10        -1.2632   13.2234    3.7383 H         1 <0>         0.1265
     47 H11        -0.0366   14.4571    5.3704 H         1 <0>         0.1153
     48 H12         2.4700   14.1318    5.7271 H         1 <0>         0.1181
     49 H13         3.4332   11.9849    5.0829 H         1 <0>         0.1194
     50 H14         4.1146   11.3628    3.2057 H         1 <0>         0.0683
     51 H15         3.7335   10.3925    1.7629 H         1 <0>         0.0846
     52 H16         2.7785   11.8480    2.1343 H         1 <0>         0.0563
     53 H17         2.3453    8.8107    4.9960 H         1 <0>         0.0567
     54 H18         3.7292    8.6020    3.8962 H         1 <0>         0.0595
     55 H19         3.6994    9.9651    5.0405 H         1 <0>         0.0705
     56 H20        -2.0442   10.7136    1.1893 H         1 <0>         0.0725
     57 H21        -1.8802   12.3319    1.9121 H         1 <0>         0.0723
     58 H22        -0.6650   11.7493    0.7492 H         1 <0>         0.0609
     59 H23        -0.9072    9.9600    4.6711 H         1 <0>         0.0620
     60 H24        -2.0170   11.2748    4.2153 H         1 <0>         0.0773
     61 H25        -2.1713    9.6748    3.4508 H         1 <0>         0.0655
     62 H26         5.2335    3.0735    1.8380 H         1 <0>         0.0770
     63 H27         5.4013    4.8036    2.2213 H         1 <0>         0.0725
     64 H28         4.1173    3.8417    2.9923 H         1 <0>         0.0640
     65 H29         3.8861    4.5814   -1.2625 H         1 <0>         0.0644
     66 H30         5.2596    5.2598   -0.3561 H         1 <0>         0.0698
     67 H31         5.1122    3.4979   -0.5617 H         1 <0>         0.0766
     68 H32        -0.1887    4.4270    2.4593 H         1 <0>         0.0570
     69 H33        -0.9823    5.6840    1.4804 H         1 <0>         0.0628
     70 H34        -1.1445    3.9698    1.0290 H         1 <0>         0.0737
@<TRIPOS>BOND
     1    1    2 1
     2    1   39 1
     3    1   40 1
     4    1   41 1
     5    2   11 1
     6    2    3 1
     7    2   38 1
     8    3    8 ar
     9    3    4 ar
    10    4    5 ar
    11    4   42 1
    12    5    6 ar
    13    5   43 1
    14    6    7 ar
    15    6   44 1
    16    7    8 ar
    17    7   45 1
    18    8    9 1
    19    9   10 1
    20    9   36 1
    21    9   37 1
    22   10   35 1
    23   10   11 2
    24   11   12 1
    25   12   17 1
    26   12   13 2
    27   13   14 1
    28   13   33 1
    29   14   28 1
    30   14   15 2
    31   15   16 1
    32   15   19 1
    33   16   17 1
    34   17   18 2
    35   19   20 1
    36   19   31 1
    37   19   32 1
    38   20   21 1
    39   20   26 1
    40   20   22 1
    41   22   23 2
    42   22   46 1
    43   23   24 1
    44   23   47 1
    45   24   25 2
    46   24   48 1
    47   25   26 1
    48   25   49 1
    49   26   27 1
    50   26   28 1
    51   28   29 1
    52   28   30 1
    53   29   50 1
    54   29   51 1
    55   29   52 1
    56   30   53 1
    57   30   54 1
    58   30   55 1
    59   31   56 1
    60   31   57 1
    61   31   58 1
    62   32   59 1
    63   32   60 1
    64   32   61 1
    65   33   34 2
    66   33   35 1
    67   36   62 1
    68   36   63 1
    69   36   64 1
    70   37   65 1
    71   37   66 1
    72   37   67 1
    73   38   68 1
    74   38   69 1
    75   38   70 1
@<TRIPOS>MOLECULE
ZINC13617707
   56    61     0     0     0
SMALL
USER_CHARGES
(5R,10bR)-9-bromo-2',2'-dimethyl-2-(1-naphthyl)spiro[1,10b-dihydropyrazolo[1,5-c][1,3]benzoxazine-5,4'-tetrahydropyran]
@<TRIPOS>ATOM
      1 C1          0.2730   10.4318    0.2298 C.3       1 <0>        -0.1380
      2 C2          0.0885    8.9479   -0.0943 C.3       1 <0>         0.1154
      3 C3         -0.9996    8.3592    0.8087 C.3       1 <0>        -0.1266
      4 C4         -1.2293    6.8968    0.4305 C.3       1 <0>         0.4007
      5 C5         -1.5848    6.7982   -1.0524 C.3       1 <0>        -0.1770
      6 C6         -0.4728    7.4482   -1.8811 C.3       1 <0>         0.0646
      7 O1         -0.3003    8.8034   -1.4618 O.3       1 <0>        -0.3680
      8 N1         -2.3089    6.3302    1.2435 N.pl3     1 <0>        -0.5531
      9 C7         -2.6533    4.8934    1.1491 C.3       1 <0>         0.1560
     10 H1         -3.2168    4.6754    0.2419 H         1 <0>         0.0997
     11 C8         -3.4842    4.6575    2.4174 C.3       1 <0>        -0.1130
     12 C9         -3.7500    6.0559    2.9365 C.2       1 <0>         0.0943
     13 N2         -3.0841    6.9125    2.2303 N.2       1 <0>        -0.1955
     14 C10        -4.6285    6.3888    4.0686 C.ar      1 <0>        -0.0134
     15 C11        -5.3001    5.3899    4.7632 C.ar      1 <0>        -0.0864
     16 C12        -6.1283    5.7072    5.8309 C.ar      1 <0>        -0.1191
     17 C13        -6.3146    6.9926    6.2382 C.ar      1 <0>        -0.0914
     18 C14        -5.6675    8.0532    5.5824 C.ar      1 <0>        -0.0531
     19 C15        -4.8086    7.7765    4.4906 C.ar      1 <0>        -0.0327
     20 C16        -4.1572    8.8301    3.8382 C.ar      1 <0>        -0.1089
     21 C17        -4.3528   10.1099    4.2644 C.ar      1 <0>        -0.1165
     22 C18        -5.1930   10.3852    5.3409 C.ar      1 <0>        -0.1145
     23 C19        -5.8499    9.3857    5.9913 C.ar      1 <0>        -0.1089
     24 C20        -1.3499    4.1387    1.1801 C.ar      1 <0>        -0.1668
     25 C21        -1.3624    2.7814    1.4423 C.ar      1 <0>        -0.0457
     26 C22        -0.1840    2.0588    1.4388 C.ar      1 <0>        -0.1229
     27 C23         1.0112    2.6980    1.1602 C.ar      1 <0>        -0.0511
     28 C24         1.0281    4.0516    0.9029 C.ar      1 <0>        -0.1448
     29 C25        -0.1543    4.7914    0.9200 C.ar      1 <0>         0.1636
     30 O2         -0.0564    6.1290    0.7052 O.3       1 <0>        -0.3135
     31 Br1        -0.2063    0.2038    1.8053 Br        1 <0>        -0.0436
     32 C26         1.4054    8.2061    0.1434 C.3       1 <0>        -0.1812
     33 H2          0.5681   10.5418    1.2733 H         1 <0>         0.0732
     34 H3          1.0474   10.8505   -0.4129 H         1 <0>         0.0690
     35 H4         -0.6651   10.9601    0.0599 H         1 <0>         0.0654
     36 H5         -1.9252    8.9193    0.6761 H         1 <0>         0.1013
     37 H6         -0.6827    8.4207    1.8498 H         1 <0>         0.0902
     38 H7         -1.6836    5.7499   -1.3343 H         1 <0>         0.0811
     39 H8         -2.5262    7.3159   -1.2364 H         1 <0>         0.0967
     40 H9         -0.7452    7.4258   -2.9363 H         1 <0>         0.1038
     41 H10         0.4581    6.9006   -1.7338 H         1 <0>         0.0640
     42 H11        -4.4202    4.1546    2.1743 H         1 <0>         0.1041
     43 H12        -2.9156    4.0799    3.1461 H         1 <0>         0.1001
     44 H13        -5.1769    4.3580    4.4694 H         1 <0>         0.1289
     45 H14        -6.6390    4.9118    6.3535 H         1 <0>         0.1279
     46 H15        -6.9669    7.1993    7.0738 H         1 <0>         0.1283
     47 H16        -3.5038    8.6300    3.0019 H         1 <0>         0.1545
     48 H17        -3.8497   10.9219    3.7604 H         1 <0>         0.1225
     49 H18        -5.3317   11.4078    5.6593 H         1 <0>         0.1230
     50 H19        -6.4979    9.6141    6.8246 H         1 <0>         0.1281
     51 H20        -2.2971    2.2838    1.6545 H         1 <0>         0.1377
     52 H21         1.9326    2.1349    1.1447 H         1 <0>         0.1410
     53 H22         1.9646    4.5438    0.6859 H         1 <0>         0.1408
     54 H23         1.3187    7.1844   -0.2263 H         1 <0>         0.0800
     55 H24         2.2105    8.7167   -0.3851 H         1 <0>         0.0626
     56 H25         1.6251    8.1888    1.2109 H         1 <0>         0.0667
@<TRIPOS>BOND
     1    1    2 1
     2    1   33 1
     3    1   34 1
     4    1   35 1
     5    2    7 1
     6    2    3 1
     7    2   32 1
     8    3    4 1
     9    3   36 1
    10    3   37 1
    11    4   30 1
    12    4    5 1
    13    4    8 1
    14    5    6 1
    15    5   38 1
    16    5   39 1
    17    6    7 1
    18    6   40 1
    19    6   41 1
    20    8   13 1
    21    8    9 1
    22    9   10 1
    23    9   11 1
    24    9   24 1
    25   11   12 1
    26   11   42 1
    27   11   43 1
    28   12   13 2
    29   12   14 1
    30   14   19 ar
    31   14   15 ar
    32   15   16 ar
    33   15   44 1
    34   16   17 ar
    35   16   45 1
    36   17   18 ar
    37   17   46 1
    38   18   23 ar
    39   18   19 ar
    40   19   20 ar
    41   20   21 ar
    42   20   47 1
    43   21   22 ar
    44   21   48 1
    45   22   23 ar
    46   22   49 1
    47   23   50 1
    48   24   29 ar
    49   24   25 ar
    50   25   26 ar
    51   25   51 1
    52   26   27 ar
    53   26   31 1
    54   27   28 ar
    55   27   52 1
    56   28   29 ar
    57   28   53 1
    58   29   30 1
    59   32   54 1
    60   32   55 1
    61   32   56 1
@<TRIPOS>MOLECULE
ZINC25783153
   50    54     0     0     0
SMALL
USER_CHARGES
(5R,10bS)-5-(5-bromo-2-methoxy-phenyl)-9-chloro-2-(p-tolyl)-5,10b-dihydro-1H-pyrazolo[1,5-c][1,3]benzoxazine
@<TRIPOS>ATOM
      1 C1          7.7237    6.1181    6.0439 C.3       1 <0>        -0.1211
      2 C2          6.7030    5.9585    4.9468 C.ar      1 <0>        -0.0750
      3 C3          5.9330    7.0411    4.5599 C.ar      1 <0>        -0.1215
      4 C4          4.9965    6.9021    3.5568 C.ar      1 <0>        -0.0835
      5 C5          4.8265    5.6649    2.9312 C.ar      1 <0>        -0.0238
      6 C6          5.6033    4.5749    3.3309 C.ar      1 <0>        -0.0930
      7 C7          6.5400    4.7299    4.3315 C.ar      1 <0>        -0.1211
      8 C8          3.8272    5.5085    1.8577 C.2       1 <0>         0.0870
      9 N1          3.0548    6.4462    1.4147 N.2       1 <0>        -0.1830
     10 N2          2.1831    6.0299    0.4000 N.pl3     1 <0>        -0.5410
     11 C9          2.5630    4.6546    0.0073 C.3       1 <0>         0.1676
     12 H1          3.0008    4.5695   -0.9982 H         1 <0>         0.0925
     13 C10         3.5475    4.2245    1.1035 C.3       1 <0>        -0.1139
     14 C11         1.2973    3.8379    0.0366 C.ar      1 <0>        -0.1588
     15 C12         1.3841    2.4583    0.0319 C.ar      1 <0>        -0.0690
     16 C13         0.2372    1.6864    0.0373 C.ar      1 <0>        -0.0643
     17 C14        -1.0024    2.3016    0.0357 C.ar      1 <0>        -0.0725
     18 C15        -1.0923    3.6766    0.0476 C.ar      1 <0>        -0.1367
     19 C16         0.0598    4.4634    0.0534 C.ar      1 <0>         0.1564
     20 O1         -0.1061    5.8102    0.0908 O.3       1 <0>        -0.3237
     21 C17         1.0000    6.6784   -0.1805 C.3       1 <0>         0.4338
     22 H2          0.8157    7.6599    0.2807 H         1 <0>         0.1506
     23 C18         1.1770    6.8422   -1.6680 C.ar      1 <0>        -0.1724
     24 C19         0.0964    6.6842   -2.5143 C.ar      1 <0>        -0.0206
     25 C20         0.2570    6.8405   -3.8793 C.ar      1 <0>        -0.1336
     26 C21         1.5022    7.1433   -4.4011 C.ar      1 <0>        -0.0344
     27 C22         2.5862    7.2965   -3.5590 C.ar      1 <0>        -0.2100
     28 C23         2.4260    7.1462   -2.1891 C.ar      1 <0>         0.1770
     29 O2          3.4914    7.2970   -1.3587 O.3       1 <0>        -0.2848
     30 C24         4.7472    7.6096   -1.9648 C.3       1 <0>         0.0188
     31 Br1        -1.2254    6.6313   -5.0345 Br        1 <0>        -0.0421
     32 Cl1         0.3515   -0.0459    0.0390 Cl        1 <0>        -0.0657
     33 H3          7.7100    7.1555    6.4094 H         1 <0>         0.0667
     34 H4          8.7236    5.8807    5.6518 H         1 <0>         0.0717
     35 H5          7.4825    5.4346    6.8713 H         1 <0>         0.0720
     36 H6          6.0658    7.9972    5.0443 H         1 <0>         0.1254
     37 H7          4.3959    7.7478    3.2560 H         1 <0>         0.1301
     38 H8          5.4739    3.6143    2.8545 H         1 <0>         0.1258
     39 H9          7.1444    3.8892    4.6385 H         1 <0>         0.1262
     40 H10         4.4872    3.8306    0.6891 H         1 <0>         0.0997
     41 H11         3.1105    3.4840    1.7896 H         1 <0>         0.0985
     42 H12         2.3529    1.9810    0.0237 H         1 <0>         0.1368
     43 H13        -1.9012    1.7028    0.0292 H         1 <0>         0.1413
     44 H14        -2.0633    4.1494    0.0478 H         1 <0>         0.1420
     45 H15        -0.8753    6.4428   -2.1094 H         1 <0>         0.1462
     46 H16         1.6265    7.2602   -5.4675 H         1 <0>         0.1385
     47 H17         3.5579    7.5335   -3.9667 H         1 <0>         0.1409
     48 H18         5.5174    7.7034   -1.1851 H         1 <0>         0.1041
     49 H19         4.6632    8.5594   -2.5134 H         1 <0>         0.0590
     50 H20         5.0275    6.8067   -2.6625 H         1 <0>         0.0567
@<TRIPOS>BOND
     1    1    2 1
     2    1   33 1
     3    1   34 1
     4    1   35 1
     5    2    7 ar
     6    2    3 ar
     7    3    4 ar
     8    3   36 1
     9    4    5 ar
    10    4   37 1
    11    5    6 ar
    12    5    8 1
    13    6    7 ar
    14    6   38 1
    15    7   39 1
    16    8   13 1
    17    8    9 2
    18    9   10 1
    19   10   21 1
    20   10   11 1
    21   11   12 1
    22   11   13 1
    23   11   14 1
    24   13   40 1
    25   13   41 1
    26   14   19 ar
    27   14   15 ar
    28   15   16 ar
    29   15   42 1
    30   16   17 ar
    31   16   32 1
    32   17   18 ar
    33   17   43 1
    34   18   19 ar
    35   18   44 1
    36   19   20 1
    37   20   21 1
    38   21   22 1
    39   21   23 1
    40   23   28 ar
    41   23   24 ar
    42   24   25 ar
    43   24   45 1
    44   25   26 ar
    45   25   31 1
    46   26   27 ar
    47   26   46 1
    48   27   28 ar
    49   27   47 1
    50   28   29 1
    51   29   30 1
    52   30   48 1
    53   30   49 1
    54   30   50 1
@<TRIPOS>MOLECULE
ZINC39873624
   42    46     0     0     0
SMALL
USER_CHARGES

@<TRIPOS>ATOM
      1 C1         -0.0167    1.3783    0.0096 C.ar      1 <0>        -0.0745
      2 C2          1.1689    2.0869    0.0021 C.ar      1 <0>        -0.1445
      3 C3          2.3816    1.4097   -0.0131 C.ar      1 <0>         0.1836
      4 C4          2.3981    0.0206   -0.0208 C.ar      1 <0>        -0.1377
      5 C5          1.2085   -0.6827   -0.0132 C.ar      1 <0>        -0.0065
      6 C6          0.0021   -0.0041    0.0020 C.ar      1 <0>        -0.1251
      7 Cl1         1.2272   -2.4186   -0.0227 Cl        1 <0>        -0.0562
      8 N1          3.5827    2.1243   -0.0212 N.am      1 <0>        -0.5332
      9 C7          4.9349    1.5428   -0.0432 C.3       1 <0>         0.2241
     10 H1          5.0736    0.9473   -0.9456 H         1 <0>         0.1348
     11 C8          5.8765    2.7021   -0.0412 C.2       1 <0>        -0.2397
     12 C9          7.3418    2.7568   -0.0481 C.2       1 <0>         0.4595
     13 O1          8.0450    1.7792   -0.2332 O.2       1 <0>        -0.4207
     14 C10         7.8870    4.1168    0.1924 C.ar      1 <0>        -0.1999
     15 C11         9.2517    4.3010    0.4134 C.ar      1 <0>        -0.0208
     16 C12         9.7397    5.5696    0.6401 C.ar      1 <0>        -0.0608
     17 C13         8.8745    6.6565    0.6484 C.ar      1 <0>        -0.0438
     18 C14         7.5264    6.4862    0.4298 C.ar      1 <0>        -0.1184
     19 C15         7.0085    5.2125    0.1955 C.ar      1 <0>         0.1454
     20 O2          5.6811    5.0750   -0.0262 O.3       1 <0>        -0.1745
     21 C16         5.1290    3.8457   -0.0253 C.2       1 <0>         0.0954
     22 C17         3.7058    3.4673   -0.0161 C.2       1 <0>         0.5721
     23 O3          2.7773    4.2511   -0.0031 O.2       1 <0>        -0.4601
     24 Cl2        11.4367    5.8098    0.9160 Cl        1 <0>        -0.0438
     25 C18         5.1544    0.6906    1.1801 C.ar      1 <0>        -0.0935
     26 C19         4.6714    1.1057    2.4071 C.ar      1 <0>        -0.0892
     27 C20         4.8720    0.3242    3.5293 C.ar      1 <0>        -0.0863
     28 C21         5.5563   -0.8734    3.4246 C.ar      1 <0>        -0.0769
     29 C22         6.0394   -1.2883    2.1967 C.ar      1 <0>        -0.0848
     30 C23         5.8337   -0.5087    1.0740 C.ar      1 <0>        -0.0828
     31 Br1         5.8316   -1.9428    4.9597 Br        1 <0>        -0.0404
     32 H2         -0.9595    1.9047    0.0260 H         1 <0>         0.1427
     33 H3          1.1531    3.1668    0.0077 H         1 <0>         0.1593
     34 H4          3.3393   -0.5089   -0.0330 H         1 <0>         0.1397
     35 H5         -0.9264   -0.5556    0.0083 H         1 <0>         0.1392
     36 H6          9.9221    3.4542    0.4073 H         1 <0>         0.1578
     37 H7          9.2646    7.6473    0.8290 H         1 <0>         0.1567
     38 H8          6.8673    7.3416    0.4402 H         1 <0>         0.1597
     39 H9          4.1375    2.0409    2.4889 H         1 <0>         0.1248
     40 H10         4.4949    0.6487    4.4879 H         1 <0>         0.1375
     41 H11         6.5737   -2.2233    2.1144 H         1 <0>         0.1407
     42 H12         6.2073   -0.8345    0.1145 H         1 <0>         0.1409
@<TRIPOS>BOND
     1    1    6 ar
     2    1    2 ar
     3    1   32 1
     4    2    3 ar
     5    2   33 1
     6    3    4 ar
     7    3    8 1
     8    4    5 ar
     9    4   34 1
    10    5    6 ar
    11    5    7 1
    12    6   35 1
    13    8   22 am
    14    8    9 1
    15    9   10 1
    16    9   11 1
    17    9   25 1
    18   11   21 2
    19   11   12 1
    20   12   13 2
    21   12   14 1
    22   14   19 ar
    23   14   15 ar
    24   15   16 ar
    25   15   36 1
    26   16   17 ar
    27   16   24 1
    28   17   18 ar
    29   17   37 1
    30   18   19 ar
    31   18   38 1
    32   19   20 1
    33   20   21 1
    34   21   22 1
    35   22   23 2
    36   25   30 ar
    37   25   26 ar
    38   26   27 ar
    39   26   39 1
    40   27   28 ar
    41   27   40 1
    42   28   29 ar
    43   28   31 1
    44   29   30 ar
    45   29   41 1
    46   30   42 1
@<TRIPOS>MOLECULE
ZINC43764372
   62    67     0     0     0
SMALL
USER_CHARGES

@<TRIPOS>ATOM
      1 C1         -5.3452   -1.1493    0.2686 C.3       1 <0>        -0.1234
      2 C2         -4.0495   -1.8647   -0.0150 C.ar      1 <0>        -0.0410
      3 C3         -3.7460   -2.2526   -1.3087 C.ar      1 <0>        -0.1377
      4 C4         -2.5626   -2.9074   -1.5762 C.ar      1 <0>        -0.0607
      5 C5         -1.6677   -3.1797   -0.5362 C.ar      1 <0>        -0.1813
      6 C6         -1.9816   -2.7846    0.7679 C.ar      1 <0>        -0.0134
      7 C7         -3.1668   -2.1254    1.0184 C.ar      1 <0>        -0.1368
      8 C8         -1.0247   -3.0734    1.8957 C.3       1 <0>        -0.1259
      9 C9         -0.4026   -3.8787   -0.8131 C.2       1 <0>         0.3972
     10 O1          0.4183   -4.0184    0.0683 O.2       1 <0>        -0.4242
     11 C10        -0.1274   -4.4208   -2.1920 C.3       1 <0>         0.1178
     12 H1         -0.8380   -4.0065   -2.9071 H         1 <0>         0.0990
     13 C11         1.3223   -4.0805   -2.6206 C.3       1 <0>        -0.0295
     14 H2          1.9922   -4.0775   -1.7608 H         1 <0>         0.1372
     15 C12         1.6573   -5.2557   -3.5820 C.3       1 <0>         0.1466
     16 C13         0.9632   -6.4418   -2.8920 C.3       1 <0>         0.2022
     17 H3          1.6421   -6.9082   -2.1780 H         1 <0>         0.1097
     18 N1         -0.2110   -5.8808   -2.1859 N.pl3     1 <0>        -0.6212
     19 C14        -1.2193   -6.7053   -1.6969 C.ar      1 <0>         0.2279
     20 C15        -1.9596   -6.4301   -0.5695 C.ar      1 <0>        -0.1653
     21 C16        -2.9306   -7.3267   -0.1549 C.ar      1 <0>        -0.0698
     22 C17        -3.1571   -8.4921   -0.8672 C.ar      1 <0>        -0.1549
     23 C18        -2.4259   -8.7767   -2.0043 C.ar      1 <0>        -0.0631
     24 C19        -1.4531   -7.8833   -2.4366 C.ar      1 <0>        -0.1210
     25 C20        -0.6685   -8.1152   -3.6651 C.2       1 <0>        -0.0618
     26 C21         0.4864   -7.4607   -3.8911 C.2       1 <0>        -0.1986
     27 C22         3.1113   -5.4714   -3.6616 C.1       1 <0>         0.2108
     28 N2          4.2333   -5.6379   -3.7230 N.1       1 <0>        -0.3595
     29 C23         1.0889   -5.0194   -4.9191 C.1       1 <0>         0.2172
     30 N3          0.6502   -4.8370   -5.9510 N.1       1 <0>        -0.3665
     31 C24         1.3738   -2.7599   -3.3447 C.ar      1 <0>        -0.0916
     32 C25         0.5232   -2.5128   -4.3784 C.ar      1 <0>        -0.1037
     33 C26         0.5561   -1.2978   -5.0598 C.ar      1 <0>        -0.1134
     34 C27         1.4400   -0.3229   -4.7119 C.ar      1 <0>        -0.0882
     35 C28         2.3337   -0.5415   -3.6500 C.ar      1 <0>        -0.0508
     36 C29         2.2960   -1.7751   -2.9528 C.ar      1 <0>        -0.0299
     37 C30         3.1861   -1.9914   -1.8868 C.ar      1 <0>        -0.1153
     38 C31         4.0657   -1.0143   -1.5352 C.ar      1 <0>        -0.1034
     39 C32         4.0984    0.2012   -2.2166 C.ar      1 <0>        -0.1137
     40 C33         3.2609    0.4411   -3.2622 C.ar      1 <0>        -0.1020
     41 H4         -5.1957   -0.0741    0.1701 H         1 <0>         0.0773
     42 H5         -6.1042   -1.4772   -0.4417 H         1 <0>         0.0716
     43 H6         -5.6729   -1.3793    1.2824 H         1 <0>         0.0713
     44 H7         -4.4382   -2.0419   -2.1105 H         1 <0>         0.1295
     45 H8         -2.3274   -3.2097   -2.5860 H         1 <0>         0.1270
     46 H9         -3.4087   -1.8157    2.0244 H         1 <0>         0.1301
     47 H10        -0.2534   -2.3038    1.9238 H         1 <0>         0.0790
     48 H11        -1.5678   -3.0781    2.8408 H         1 <0>         0.0632
     49 H12        -0.5609   -4.0471    1.7384 H         1 <0>         0.0906
     50 H13        -1.7843   -5.5219   -0.0120 H         1 <0>         0.1240
     51 H14        -3.5145   -7.1154    0.7287 H         1 <0>         0.1262
     52 H15        -3.9130   -9.1860   -0.5303 H         1 <0>         0.1251
     53 H16        -2.6093   -9.6880   -2.5541 H         1 <0>         0.1286
     54 H17        -1.0159   -8.8367   -4.3899 H         1 <0>         0.1297
     55 H18         1.0592   -7.6441   -4.7882 H         1 <0>         0.1333
     56 H19        -0.1875   -3.2699   -4.6751 H         1 <0>         0.1244
     57 H20        -0.1298   -1.1273   -5.8764 H         1 <0>         0.1288
     58 H21         1.4546    0.6137   -5.2495 H         1 <0>         0.1321
     59 H22         3.1718   -2.9280   -1.3492 H         1 <0>         0.1276
     60 H23         4.7486   -1.1831   -0.7157 H         1 <0>         0.1264
     61 H24         4.8061    0.9600   -1.9171 H         1 <0>         0.1262
     62 H25         3.2981    1.3873   -3.7814 H         1 <0>         0.1301
@<TRIPOS>BOND
     1    1    2 1
     2    1   41 1
     3    1   42 1
     4    1   43 1
     5    2    7 ar
     6    2    3 ar
     7    3    4 ar
     8    3   44 1
     9    4    5 ar
    10    4   45 1
    11    5    6 ar
    12    5    9 1
    13    6    7 ar
    14    6    8 1
    15    7   46 1
    16    8   47 1
    17    8   48 1
    18    8   49 1
    19    9   10 2
    20    9   11 1
    21   11   12 1
    22   11   18 1
    23   11   13 1
    24   13   14 1
    25   13   15 1
    26   13   31 1
    27   15   16 1
    28   15   27 1
    29   15   29 1
    30   16   17 1
    31   16   26 1
    32   16   18 1
    33   18   19 1
    34   19   24 ar
    35   19   20 ar
    36   20   21 ar
    37   20   50 1
    38   21   22 ar
    39   21   51 1
    40   22   23 ar
    41   22   52 1
    42   23   24 ar
    43   23   53 1
    44   24   25 1
    45   25   26 2
    46   25   54 1
    47   26   55 1
    48   27   28 3
    49   29   30 3
    50   31   36 ar
    51   31   32 ar
    52   32   33 ar
    53   32   56 1
    54   33   34 ar
    55   33   57 1
    56   34   35 ar
    57   34   58 1
    58   35   40 ar
    59   35   36 ar
    60   36   37 ar
    61   37   38 ar
    62   37   59 1
    63   38   39 ar
    64   38   60 1
    65   39   40 ar
    66   39   61 1
    67   40   62 1
@<TRIPOS>MOLECULE
ZINC13022884
   46    48     0     0     0
SMALL
USER_CHARGES
2-[[2-[acetyl-(3,4-dichlorophenyl)amino]thiazol-4-yl]methylsulfanyl]-4,6-dimethyl-pyridine-3-carboxylic acid
@<TRIPOS>ATOM
      1 C1         -7.5999    9.6018    4.3334 C.3       1 <0>        -0.1111
      2 C2         -6.8665    9.0905    3.1203 C.ar      1 <0>        -0.0175
      3 C3         -7.2646    9.4537    1.8461 C.ar      1 <0>        -0.1820
      4 C4         -6.5721    8.9683    0.7508 C.ar      1 <0>         0.1201
      5 N1         -5.5373    8.1647    0.8972 N.ar      1 <0>        -0.4965
      6 C5         -5.1128    7.7847    2.0933 C.ar      1 <0>         0.1258
      7 C6         -5.7689    8.2318    3.2548 C.ar      1 <0>        -0.1189
      8 C7         -5.3066    7.8088    4.5873 C.2       1 <0>         0.5028
      9 O1         -4.4740    8.4673    5.1790 O.co2     1 <0>        -0.6203
     10 S1         -3.7244    6.7085    2.2299 S.3       1 <0>        -0.0087
     11 C8         -3.3294    6.4813    0.4782 C.3       1 <0>        -0.0446
     12 C9         -2.1376    5.5684    0.3463 C.2       1 <0>         0.1018
     13 C10        -0.8784    6.0704    0.3262 C.2       1 <0>        -0.2046
     14 S2          0.0751    4.5678    0.1652 S.3       1 <0>         0.0629
     15 C11        -1.2587    3.4563    0.1329 C.2       1 <0>         0.2978
     16 N2         -2.2953    4.2632    0.2482 N.2       1 <0>        -0.4886
     17 N3         -1.2385    2.0696    0.0203 N.am      1 <0>        -0.4721
     18 C12        -0.0161    1.3850    0.0132 C.ar      1 <0>         0.1338
     19 C13         0.8391    1.5000   -1.0750 C.ar      1 <0>        -0.0907
     20 C14         2.0461    0.8291   -1.0777 C.ar      1 <0>        -0.0819
     21 C15         2.4042    0.0419    0.0026 C.ar      1 <0>        -0.0212
     22 C16         1.5537   -0.0748    1.0891 C.ar      1 <0>        -0.0198
     23 C17         0.3446    0.5954    1.0964 C.ar      1 <0>        -0.0857
     24 Cl1         2.0062   -1.0628    2.4430 Cl        1 <0>        -0.0314
     25 Cl2         3.9223   -0.8002   -0.0041 Cl        1 <0>        -0.0367
     26 C18        -2.3949    1.3850   -0.0820 C.2       1 <0>         0.5087
     27 O2         -3.4474    1.9816   -0.1672 O.2       1 <0>        -0.4523
     28 C19        -2.3802   -0.1219   -0.0904 C.3       1 <0>        -0.1676
     29 C20        -7.0089    9.3661   -0.6356 C.3       1 <0>        -0.0927
     30 H1         -8.4035    8.9114    4.5898 H         1 <0>         0.0760
     31 H2         -6.9068    9.6798    5.1710 H         1 <0>         0.0772
     32 H3         -8.0200   10.5840    4.1168 H         1 <0>         0.0652
     33 H4         -8.1101   10.1111    1.7072 H         1 <0>         0.1296
     34 H5         -3.0984    7.4474    0.0295 H         1 <0>         0.1059
     35 H6         -4.1844    6.0385   -0.0326 H         1 <0>         0.1072
     36 H7         -0.5439    7.0951    0.3926 H         1 <0>         0.2053
     37 H8          0.5602    2.1136   -1.9188 H         1 <0>         0.1487
     38 H9          2.7111    0.9186   -1.9240 H         1 <0>         0.1556
     39 H10        -0.3186    0.5047    1.9440 H         1 <0>         0.1543
     40 H11        -2.3728   -0.4910    0.9352 H         1 <0>         0.1029
     41 H12        -3.2685   -0.4911   -0.6030 H         1 <0>         0.1046
     42 H13        -1.4886   -0.4737   -0.6096 H         1 <0>         0.0856
     43 H14        -7.7409    8.6484   -1.0059 H         1 <0>         0.0717
     44 H15        -7.4573   10.3591   -0.6044 H         1 <0>         0.0699
     45 H16        -6.1443    9.3786   -1.2993 H         1 <0>         0.0707
     46 O3         -5.8067    6.6912    5.1507 O.co2     1 <0>        -0.7390
@<TRIPOS>BOND
     1    1    2 1
     2    1   30 1
     3    1   31 1
     4    1   32 1
     5    2    7 ar
     6    2    3 ar
     7    3    4 ar
     8    3   33 1
     9    4    5 ar
    10    4   29 1
    11    5    6 ar
    12    6    7 ar
    13    6   10 1
    14    7    8 1
    15    8    9 2
    16    8   46 1
    17   10   11 1
    18   11   12 1
    19   11   34 1
    20   11   35 1
    21   12   16 1
    22   12   13 2
    23   13   14 1
    24   13   36 1
    25   14   15 1
    26   15   16 2
    27   15   17 1
    28   17   18 1
    29   17   26 am
    30   18   23 ar
    31   18   19 ar
    32   19   20 ar
    33   19   37 1
    34   20   21 ar
    35   20   38 1
    36   21   22 ar
    37   21   25 1
    38   22   23 ar
    39   22   24 1
    40   23   39 1
    41   26   27 2
    42   26   28 1
    43   28   40 1
    44   28   41 1
    45   28   42 1
    46   29   43 1
    47   29   44 1
    48   29   45 1
@<TRIPOS>MOLECULE
ZINC33299041
   37    39     0     0     0
SMALL
USER_CHARGES
5-bromo-N-(2-propylsulfonyl-1,3-benzothiazol-6-yl)thiophene-2-sulfonamide
@<TRIPOS>ATOM
      1 C1         -1.2546    2.0632   -3.6740 C.3       1 <0>        -0.1464
      2 C2         -0.3706    1.5036   -2.5577 C.3       1 <0>        -0.1197
      3 C3         -0.9758    1.8630   -1.1992 C.3       1 <0>        -0.6042
      4 S1          0.0724    1.1994    0.1243 S.o2      1 <0>         2.5347
      5 O1          0.0207   -0.2206    0.1241 O.2       1 <0>        -0.9173
      6 O2          1.3202    1.8789    0.1476 O.2       1 <0>        -0.9234
      7 C4         -0.7282    1.6783    1.6191 C.2       1 <0>        -0.4840
      8 N1         -1.6347    1.0361    2.3038 N.2       1 <0>        -0.3427
      9 C5         -2.1695    1.5227    3.4449 C.ar      1 <0>        -0.0423
     10 C6         -3.1513    0.9296    4.2730 C.ar      1 <0>         0.0028
     11 C7         -3.5874    1.5549    5.3976 C.ar      1 <0>        -0.2110
     12 C8         -3.0896    2.7994    5.7813 C.ar      1 <0>         0.3032
     13 C9         -2.1249    3.4140    4.9947 C.ar      1 <0>        -0.1427
     14 C10        -1.6821    2.7843    3.8573 C.ar      1 <0>        -0.0569
     15 S2         -0.4995    3.1634    2.5869 S.3       1 <0>         0.0327
     16 N2         -3.5566    3.4209    6.9436 N.2       1 <0>        -1.0481
     17 S3         -5.1823    3.4858    7.2519 S.o2      1 <0>         2.6225
     18 O3         -5.6699    2.1555    7.1422 O.2       1 <0>        -1.0172
     19 O4         -5.3412    4.2604    8.4326 O.2       1 <0>        -0.9740
     20 C11        -5.9245    4.4036    5.9437 C.2       1 <0>        -0.6930
     21 C12        -6.5055    3.9506    4.8063 C.2       1 <0>        -0.0508
     22 C13        -7.0284    4.8646    3.9103 C.2       1 <0>        -0.1313
     23 C14        -6.9443    6.1876    4.1969 C.2       1 <0>        -0.1753
     24 S4         -6.1131    6.1710    5.7768 S.3       1 <0>         0.2045
     25 Br1        -7.5560    7.6658    3.1885 Br        1 <0>         0.0343
     26 H1         -0.8194    1.8048   -4.6507 H         1 <0>         0.0633
     27 H2         -1.3173    3.1572   -3.5784 H         1 <0>         0.0605
     28 H3         -2.2626    1.6299   -3.5955 H         1 <0>         0.0605
     29 H4         -0.3079    0.4096   -2.6533 H         1 <0>         0.0826
     30 H5          0.6374    1.9369   -2.6362 H         1 <0>         0.0824
     31 H6         -1.0385    2.9570   -1.1036 H         1 <0>         0.1401
     32 H7         -1.9838    1.4298   -1.1207 H         1 <0>         0.1417
     33 H8         -3.5603   -0.0340    4.0072 H         1 <0>         0.1282
     34 H9         -4.3377    1.0762    6.0094 H         1 <0>         0.1591
     35 H10        -1.7267    4.3782    5.2742 H         1 <0>         0.1346
     36 H11        -6.5589    2.8914    4.6025 H         1 <0>         0.1500
     37 H12        -7.4964    4.5302    2.9962 H         1 <0>         0.1426
@<TRIPOS>BOND
     1    1    2 1
     2    1   26 1
     3    1   27 1
     4    1   28 1
     5    2    3 1
     6    2   29 1
     7    2   30 1
     8    3    4 1
     9    3   31 1
    10    3   32 1
    11    4    5 2
    12    4    6 2
    13    4    7 1
    14    7   15 1
    15    7    8 2
    16    8    9 1
    17    9   14 ar
    18    9   10 ar
    19   10   11 ar
    20   10   33 1
    21   11   12 ar
    22   11   34 1
    23   12   13 ar
    24   12   16 1
    25   13   14 ar
    26   13   35 1
    27   14   15 1
    28   16   17 1
    29   17   18 2
    30   17   19 2
    31   17   20 1
    32   20   24 1
    33   20   21 2
    34   21   22 1
    35   21   36 1
    36   22   23 2
    37   22   37 1
    38   23   24 1
    39   23   25 1
@<TRIPOS>MOLECULE
ZINC02370942
   55    59     0     0     0
SMALL
USER_CHARGES

@<TRIPOS>ATOM
      1 C1          1.7623    3.9834   -0.8495 C.ar      1 <0>        -0.1194
      2 C2          3.0741    3.5587   -0.9482 C.ar      1 <0>        -0.1377
      3 C3          3.4219    2.2869   -0.5330 C.ar      1 <0>        -0.1011
      4 C4          2.4581    1.4399   -0.0187 C.ar      1 <0>        -0.1039
      5 C5          1.1464    1.8649    0.0809 C.ar      1 <0>        -0.0844
      6 C6          0.7983    3.1362   -0.3356 C.ar      1 <0>        -0.1336
      7 C7          2.8371    0.0531    0.4330 C.3       1 <0>         0.1341
      8 N1          3.2131    0.0862    1.8485 N.am      1 <0>        -0.5405
      9 C8          4.5000    0.3139    2.1887 C.2       1 <0>         0.5612
     10 O1          5.3530    0.4921    1.3395 O.2       1 <0>        -0.5155
     11 C9          4.8370    0.3399    3.6261 C.2       1 <0>        -0.2823
     12 C10         6.1326    0.5673    4.0625 C.2       1 <0>         0.1008
     13 C11         6.4708    0.3513    5.4220 C.ar      1 <0>        -0.1511
     14 C12         6.0953   -0.8400    6.0652 C.ar      1 <0>         0.0499
     15 C13         6.4228   -1.0419    7.3708 C.ar      1 <0>        -0.1929
     16 C14         7.1355   -0.0681    8.0860 C.ar      1 <0>         0.2297
     17 C15         7.5069    1.1111    7.4466 C.ar      1 <0>        -0.1968
     18 C16         7.1893    1.3235    6.1364 C.ar      1 <0>        -0.0174
     19 C17         8.2561    1.9759    8.4361 C.3       1 <0>        -0.0773
     20 C18         8.2723    1.1483    9.7318 C.3       1 <0>         0.1156
     21 N2          7.5575   -0.0884    9.4073 N.pl3     1 <0>        -0.6141
     22 C19         7.3222   -1.1898   10.3442 C.3       1 <0>         0.1751
     23 C20         8.4653   -2.1688   10.2660 C.ar      1 <0>        -0.0979
     24 C21         8.3321   -3.3293    9.5268 C.ar      1 <0>        -0.0889
     25 C22         9.3804   -4.2273    9.4549 C.ar      1 <0>        -0.1137
     26 C23        10.5627   -3.9654   10.1221 C.ar      1 <0>        -0.1066
     27 C24        10.6970   -2.8056   10.8614 C.ar      1 <0>        -0.1140
     28 C25         9.6499   -1.9035   10.9291 C.ar      1 <0>        -0.0222
     29 Cl1         9.8202   -0.4432   11.8522 Cl        1 <0>        -0.0680
     30 C26         3.7347    0.1139    4.5742 C.2       1 <0>         0.4947
     31 O2          3.9567    0.1218    5.9059 O.3       1 <0>        -0.5760
     32 N3          2.5226   -0.0965    4.0923 N.2       1 <0>        -0.6003
     33 C27         2.2728   -0.1045    2.7854 C.2       1 <0>         0.5489
     34 S1          0.6634   -0.3806    2.2713 S.2       1 <0>        -0.6774
     35 H1          1.4913    4.9786   -1.1697 H         1 <0>         0.1145
     36 H2          3.8271    4.2204   -1.3500 H         1 <0>         0.1154
     37 H3          4.4467    1.9548   -0.6108 H         1 <0>         0.1226
     38 H4          0.3934    1.2031    0.4824 H         1 <0>         0.1555
     39 H5         -0.2265    3.4681   -0.2582 H         1 <0>         0.1185
     40 H6          1.9885   -0.6176    0.2981 H         1 <0>         0.1255
     41 H7          3.6801   -0.3040   -0.1586 H         1 <0>         0.0900
     42 H8          6.8846    0.9090    3.3667 H         1 <0>         0.1349
     43 H9          5.5461   -1.5959    5.5235 H         1 <0>         0.1163
     44 H10         6.1313   -1.9593    7.8603 H         1 <0>         0.1118
     45 H11         7.4865    2.2411    5.6505 H         1 <0>         0.1181
     46 H12         9.2728    2.1590    8.0884 H         1 <0>         0.0782
     47 H13         7.7308    2.9180    8.5926 H         1 <0>         0.0797
     48 H14         9.2982    0.9260   10.0256 H         1 <0>         0.0716
     49 H15         7.7577    1.6843   10.5292 H         1 <0>         0.0638
     50 H16         7.2504   -0.7954   11.3578 H         1 <0>         0.0893
     51 H17         6.3923   -1.6955   10.0844 H         1 <0>         0.0905
     52 H18         7.4087   -3.5345    9.0056 H         1 <0>         0.1335
     53 H19         9.2758   -5.1340    8.8775 H         1 <0>         0.1303
     54 H20        11.3814   -4.6676   10.0659 H         1 <0>         0.1310
     55 H21        11.6205   -2.6013   11.3828 H         1 <0>         0.1318
@<TRIPOS>BOND
     1    1    6 ar
     2    1    2 ar
     3    1   35 1
     4    2    3 ar
     5    2   36 1
     6    3    4 ar
     7    3   37 1
     8    4    5 ar
     9    4    7 1
    10    5    6 ar
    11    5   38 1
    12    6   39 1
    13    7    8 1
    14    7   40 1
    15    7   41 1
    16    8   33 1
    17    8    9 am
    18    9   10 2
    19    9   11 1
    20   11   12 2
    21   11   30 1
    22   12   13 1
    23   12   42 1
    24   13   18 ar
    25   13   14 ar
    26   14   15 ar
    27   14   43 1
    28   15   16 ar
    29   15   44 1
    30   16   21 1
    31   16   17 ar
    32   17   18 ar
    33   17   19 1
    34   18   45 1
    35   19   20 1
    36   19   46 1
    37   19   47 1
    38   20   21 1
    39   20   48 1
    40   20   49 1
    41   21   22 1
    42   22   23 1
    43   22   50 1
    44   22   51 1
    45   23   28 ar
    46   23   24 ar
    47   24   25 ar
    48   24   52 1
    49   25   26 ar
    50   25   53 1
    51   26   27 ar
    52   26   54 1
    53   27   28 ar
    54   27   55 1
    55   28   29 1
    56   30   31 1
    57   30   32 2
    58   32   33 1
    59   33   34 2
@<TRIPOS>MOLECULE
ZINC17957789
   45    47     0     0     0
SMALL
USER_CHARGES

@<TRIPOS>ATOM
      1 C1          0.0264    1.4015    0.0498 C.3       1 <0>         0.0742
      2 N1          0.1190   -0.0602    0.0196 N.am      1 <0>        -0.6178
      3 C2          0.2335   -0.8129    1.2713 C.3       1 <0>         0.1720
      4 C3         -1.1431   -1.1623    1.7751 C.ar      1 <0>        -0.1466
      5 C4         -1.7255   -0.4073    2.7751 C.ar      1 <0>        -0.0389
      6 C5         -2.9890   -0.7275    3.2379 C.ar      1 <0>        -0.1407
      7 C6         -3.6724   -1.8041    2.7008 C.ar      1 <0>        -0.0427
      8 C7         -3.0940   -2.5611    1.7007 C.ar      1 <0>        -0.2094
      9 C8         -1.8288   -2.2384    1.2314 C.ar      1 <0>         0.1765
     10 O1         -1.2599   -2.9791    0.2440 O.3       1 <0>        -0.2633
     11 C9         -2.0237   -4.0725   -0.2689 C.3       1 <0>         0.0337
     12 Br1        -3.7833    0.3071    4.6071 Br        1 <0>        -0.0627
     13 C10         0.0988   -0.7126   -1.1596 C.2       1 <0>         0.4980
     14 O2          0.1754   -1.9227   -1.1845 O.2       1 <0>        -0.4733
     15 C11        -0.0190    0.0617   -2.4471 C.3       1 <0>         0.0993
     16 N2         -0.0188   -0.8690   -3.5784 N.pl3     1 <0>        -0.4716
     17 C12         1.0719   -1.3103   -4.2916 C.2       1 <0>         0.1461
     18 N3          0.6233   -2.1296   -5.2139 N.2       1 <0>        -0.2666
     19 N4         -0.6550   -2.2296   -5.1278 N.2       1 <0>        -0.3398
     20 C13        -1.1005   -1.4842   -4.1412 C.2       1 <0>         0.3935
     21 S1         -2.7807   -1.3081   -3.6407 S.3       1 <0>        -0.7949
     22 C14         2.4828   -0.9330   -4.0625 C.ar      1 <0>         0.0341
     23 C15         2.8737   -0.3944   -2.8355 C.ar      1 <0>        -0.1144
     24 C16         4.1915   -0.0442   -2.6276 C.ar      1 <0>        -0.1017
     25 C17         5.1260   -0.2259   -3.6332 C.ar      1 <0>        -0.0424
     26 C18         4.7442   -0.7598   -4.8526 C.ar      1 <0>        -0.1035
     27 C19         3.4304   -1.1191   -5.0703 C.ar      1 <0>        -0.0793
     28 Cl1         6.7827    0.2178   -3.3644 Cl        1 <0>        -0.0793
     29 H1          1.0275    1.8300    0.0033 H         1 <0>         0.0579
     30 H2         -0.5565    1.7464   -0.8043 H         1 <0>         0.0720
     31 H3         -0.4608    1.7157    0.9729 H         1 <0>         0.0727
     32 H4          0.7987   -1.7280    1.0945 H         1 <0>         0.0958
     33 H5          0.7492   -0.2052    2.0148 H         1 <0>         0.0845
     34 H6         -1.1936    0.4331    3.1959 H         1 <0>         0.1340
     35 H7         -4.6586   -2.0529    3.0640 H         1 <0>         0.1309
     36 H8         -3.6276   -3.4015    1.2820 H         1 <0>         0.1361
     37 H9         -1.4552   -4.5785   -1.0492 H         1 <0>         0.0996
     38 H10        -2.2395   -4.7745    0.5366 H         1 <0>         0.0448
     39 H11        -2.9591   -3.6986   -0.6853 H         1 <0>         0.0613
     40 H12        -0.9487    0.6308   -2.4450 H         1 <0>         0.1239
     41 H13         0.8252    0.7451   -2.5386 H         1 <0>         0.1077
     42 H14         2.1456   -0.2519   -2.0506 H         1 <0>         0.1273
     43 H15         4.4951    0.3730   -1.6788 H         1 <0>         0.1330
     44 H16         5.4775   -0.8992   -5.6332 H         1 <0>         0.1361
     45 H17         3.1347   -1.5395   -6.0201 H         1 <0>         0.1440
@<TRIPOS>BOND
     1    1    2 1
     2    1   29 1
     3    1   30 1
     4    1   31 1
     5    2    3 1
     6    2   13 am
     7    3    4 1
     8    3   32 1
     9    3   33 1
    10    4    9 ar
    11    4    5 ar
    12    5    6 ar
    13    5   34 1
    14    6    7 ar
    15    6   12 1
    16    7    8 ar
    17    7   35 1
    18    8    9 ar
    19    8   36 1
    20    9   10 1
    21   10   11 1
    22   11   37 1
    23   11   38 1
    24   11   39 1
    25   13   14 2
    26   13   15 1
    27   15   40 1
    28   15   41 1
    29   15   16 1
    30   16   20 1
    31   16   17 1
    32   17   22 1
    33   17   18 2
    34   18   19 1
    35   19   20 2
    36   20   21 1
    37   22   27 ar
    38   22   23 ar
    39   23   24 ar
    40   23   42 1
    41   24   25 ar
    42   24   43 1
    43   25   26 ar
    44   25   28 1
    45   26   27 ar
    46   26   44 1
    47   27   45 1
@<TRIPOS>MOLECULE
ZINC47146934
   57    62     0     0     0
SMALL
USER_CHARGES

@<TRIPOS>ATOM
      1 C1          7.8370   -9.8480    4.8920 C.3       1 <0>        -0.1081
      2 C2          7.4152   -8.7249    5.8040 C.ar      1 <0>        -0.0702
      3 C3          8.3234   -8.1759    6.6902 C.ar      1 <0>        -0.1150
      4 C4          7.9366   -7.1459    7.5266 C.ar      1 <0>        -0.1238
      5 C5          6.6416   -6.6642    7.4769 C.ar      1 <0>        -0.1019
      6 C6          5.7340   -7.2124    6.5904 C.ar      1 <0>        -0.0853
      7 C7          6.1221   -8.2399    5.7507 C.ar      1 <0>        -0.0720
      8 C8          4.3223   -6.6877    6.5365 C.3       1 <0>         0.1005
      9 O1          4.2456   -5.6237    5.5857 O.3       1 <0>        -0.2601
     10 C9          3.0323   -5.0359    5.4141 C.ar      1 <0>         0.2056
     11 C10         1.9393   -5.4704    6.1501 C.ar      1 <0>        -0.2197
     12 C11         0.7074   -4.8711    5.9742 C.ar      1 <0>        -0.0762
     13 C12         0.5628   -3.8387    5.0656 C.ar      1 <0>        -0.1754
     14 C13         1.6502   -3.4042    4.3307 C.ar      1 <0>        -0.0783
     15 C14         2.8859   -3.9967    4.5071 C.ar      1 <0>        -0.1192
     16 C15         4.0722   -3.5184    3.7103 C.3       1 <0>         0.0931
     17 H1          3.7047   -3.0829    2.7811 H         1 <0>         0.0887
     18 C16         4.9109   -4.6939    3.3734 C.2       1 <0>        -0.2900
     19 C17         6.2600   -4.8379    3.4811 C.2       1 <0>         0.1622
     20 N1          6.7325   -6.0113    3.0523 N.2       1 <0>        -0.6287
     21 C18         5.9426   -6.9550    2.5967 C.2       1 <0>         0.4360
     22 O2          6.2785   -8.1854    2.1378 O.3       1 <0>        -0.6312
     23 S1          4.4104   -6.2672    2.7210 S.3       1 <0>        -0.0930
     24 S2          7.2651   -3.5483    4.1671 S.3       1 <0>        -0.0421
     25 C19         6.1901   -2.0795    4.1033 C.3       1 <0>        -0.1089
     26 H2          6.2774   -1.5231    3.1701 H         1 <0>         0.1551
     27 C20         4.7541   -2.4543    4.4847 C.3       1 <0>        -0.1050
     28 H3          4.1800   -1.5473    4.2957 H         1 <0>         0.1126
     29 C21         4.8008   -2.5514    5.9774 C.2       1 <0>         0.5556
     30 O3          4.0876   -3.2266    6.6880 O.2       1 <0>        -0.4245
     31 N2          5.8033   -1.7308    6.3714 N.am      1 <0>        -0.5234
     32 C22         6.5513   -1.2561    5.3526 C.2       1 <0>         0.5531
     33 O4          7.3620   -0.3568    5.4116 O.2       1 <0>        -0.4509
     34 C23         6.0362   -1.3968    7.7130 C.ar      1 <0>         0.1305
     35 C24         5.2237   -1.9182    8.7106 C.ar      1 <0>        -0.1397
     36 C25         5.4556   -1.5874   10.0314 C.ar      1 <0>        -0.1008
     37 C26         6.4958   -0.7378   10.3604 C.ar      1 <0>        -0.1336
     38 C27         7.3067   -0.2169    9.3689 C.ar      1 <0>        -0.1011
     39 C28         7.0833   -0.5486    8.0469 C.ar      1 <0>        -0.1436
     40 H4          8.2248   -9.4341    3.9612 H         1 <0>         0.0814
     41 H5          8.6133  -10.4388    5.3782 H         1 <0>         0.0544
     42 H6          6.9779  -10.4835    4.6769 H         1 <0>         0.0611
     43 H7          9.3350   -8.5522    6.7290 H         1 <0>         0.1151
     44 H8          8.6459   -6.7175    8.2194 H         1 <0>         0.1150
     45 H9          6.3391   -5.8598    8.1310 H         1 <0>         0.1125
     46 H10         5.4139   -8.6658    5.0553 H         1 <0>         0.1171
     47 H11         3.6475   -7.4903    6.2389 H         1 <0>         0.0609
     48 H12         4.0345   -6.3172    7.5204 H         1 <0>         0.0604
     49 H13         2.0516   -6.2769    6.8596 H         1 <0>         0.1192
     50 H14        -0.1438   -5.2092    6.5466 H         1 <0>         0.1141
     51 H15        -0.4013   -3.3713    4.9295 H         1 <0>         0.1143
     52 H16         1.5347   -2.5980    3.6214 H         1 <0>         0.1199
     53 H17         4.4110   -2.5816    8.4542 H         1 <0>         0.1545
     54 H18         4.8237   -1.9924   10.8080 H         1 <0>         0.1268
     55 H19         6.6750   -0.4802   11.3939 H         1 <0>         0.1226
     56 H20         8.1184    0.4465    9.6289 H         1 <0>         0.1271
     57 H21         7.7197   -0.1450    7.2733 H         1 <0>         0.1521
@<TRIPOS>BOND
     1    1    2 1
     2    1   40 1
     3    1   41 1
     4    1   42 1
     5    2    7 ar
     6    2    3 ar
     7    3    4 ar
     8    3   43 1
     9    4    5 ar
    10    4   44 1
    11    5    6 ar
    12    5   45 1
    13    6    7 ar
    14    6    8 1
    15    7   46 1
    16    8    9 1
    17    8   47 1
    18    8   48 1
    19    9   10 1
    20   10   15 ar
    21   10   11 ar
    22   11   12 ar
    23   11   49 1
    24   12   13 ar
    25   12   50 1
    26   13   14 ar
    27   13   51 1
    28   14   15 ar
    29   14   52 1
    30   15   16 1
    31   16   17 1
    32   16   27 1
    33   16   18 1
    34   18   23 1
    35   18   19 2
    36   19   20 1
    37   19   24 1
    38   20   21 2
    39   21   22 1
    40   21   23 1
    41   24   25 1
    42   25   26 1
    43   25   32 1
    44   25   27 1
    45   27   28 1
    46   27   29 1
    47   29   30 2
    48   29   31 am
    49   31   32 am
    50   31   34 1
    51   32   33 2
    52   34   39 ar
    53   34   35 ar
    54   35   36 ar
    55   35   53 1
    56   36   37 ar
    57   36   54 1
    58   37   38 ar
    59   37   55 1
    60   38   39 ar
    61   38   56 1
    62   39   57 1
@<TRIPOS>MOLECULE
ZINC00863539
   61    64     0     0     0
SMALL
USER_CHARGES

@<TRIPOS>ATOM
      1 C1         -0.0349    1.5368   -0.1542 C.3       1 <0>        -0.1487
      2 C2         -0.0094    0.0071   -0.1422 C.3       1 <0>         0.0594
      3 O1         -1.3477   -0.4912   -0.0910 O.3       1 <0>        -0.3324
      4 C3         -1.5019   -1.8295   -0.0743 C.2       1 <0>         0.4612
      5 C4         -2.7667   -2.3775   -0.0253 C.2       1 <0>        -0.3804
      6 C5         -2.9288   -3.8638   -0.1413 C.3       1 <0>         0.1318
      7 H1         -2.3856   -4.3472    0.6706 H         1 <0>         0.0603
      8 C6         -4.3819   -4.2587   -0.0683 C.2       1 <0>        -0.3842
      9 C7         -5.3690   -3.3158    0.0932 C.2       1 <0>         0.2443
     10 C8         -6.8202   -3.7305    0.1739 C.3       1 <0>        -0.0636
     11 C9         -7.0386   -4.9967   -0.6564 C.3       1 <0>        -0.0356
     12 H2         -6.7965   -4.7964   -1.7001 H         1 <0>         0.0817
     13 C10        -6.1193   -6.0971   -0.1168 C.3       1 <0>        -0.1511
     14 C11        -4.6955   -5.6168   -0.1718 C.2       1 <0>         0.3903
     15 O2         -3.7983   -6.4267   -0.3089 O.2       1 <0>        -0.5041
     16 C12        -8.4767   -5.4332   -0.5452 C.ar      1 <0>        -0.0601
     17 C13        -9.0091   -5.7452    0.6920 C.ar      1 <0>        -0.1090
     18 C14       -10.3277   -6.1462    0.7993 C.ar      1 <0>        -0.1687
     19 C15       -11.1191   -6.2357   -0.3347 C.ar      1 <0>         0.0886
     20 C16       -10.5833   -5.9212   -1.5798 C.ar      1 <0>         0.0992
     21 C17        -9.2622   -5.5154   -1.6798 C.ar      1 <0>        -0.1656
     22 O3        -11.3560   -6.0075   -2.6956 O.3       1 <0>        -0.3095
     23 C18       -10.7393   -5.6695   -3.9396 C.3       1 <0>         0.0257
     24 O4        -12.4163   -6.6304   -0.2309 O.3       1 <0>        -0.3099
     25 C19       -12.8982   -6.9376    1.0789 C.3       1 <0>         0.0273
     26 N1         -5.0868   -2.0184    0.1839 N.2       1 <0>        -0.6404
     27 C20        -3.8614   -1.5448    0.1358 C.2       1 <0>         0.2745
     28 C21        -3.6430   -0.0583    0.2524 C.3       1 <0>        -0.0990
     29 C22        -2.3588   -4.3219   -1.4590 C.ar      1 <0>        -0.0108
     30 C23        -2.8715   -3.8271   -2.6435 C.ar      1 <0>        -0.1035
     31 C24        -2.3487   -4.2472   -3.8521 C.ar      1 <0>        -0.1337
     32 C25        -1.3127   -5.1625   -3.8771 C.ar      1 <0>        -0.1332
     33 C26        -0.7993   -5.6579   -2.6936 C.ar      1 <0>        -0.1286
     34 C27        -1.3185   -5.2334   -1.4832 C.ar      1 <0>         0.0166
     35 Cl1        -0.6696   -5.8503    0.0042 Cl        1 <0>        -0.0708
     36 O5         -0.4206   -2.6326   -0.1055 O.3       1 <0>        -0.6264
     37 H3          0.9859    1.9169   -0.1933 H         1 <0>         0.0681
     38 H4         -0.5856    1.8842   -1.0284 H         1 <0>         0.0608
     39 H5         -0.5232    1.8992    0.7504 H         1 <0>         0.0612
     40 H6          0.4788   -0.3553   -1.0469 H         1 <0>         0.0568
     41 H7          0.5413   -0.3403    0.7319 H         1 <0>         0.0572
     42 H8         -7.0842   -3.9278    1.2129 H         1 <0>         0.0793
     43 H9         -7.4489   -2.9291   -0.2142 H         1 <0>         0.0811
     44 H10        -6.3884   -6.3237    0.9148 H         1 <0>         0.0857
     45 H11        -6.2255   -6.9933   -0.7281 H         1 <0>         0.0793
     46 H12        -8.3933   -5.6759    1.5765 H         1 <0>         0.1289
     47 H13       -10.7410   -6.3900    1.7668 H         1 <0>         0.1332
     48 H14        -8.8451   -5.2672   -2.6445 H         1 <0>         0.1351
     49 H15       -11.4637   -5.7806   -4.7463 H         1 <0>         0.0978
     50 H16       -10.3909   -4.6373   -3.9037 H         1 <0>         0.0556
     51 H17        -9.8928   -6.3327   -4.1175 H         1 <0>         0.0551
     52 H18       -12.8082   -6.0571    1.7149 H         1 <0>         0.0537
     53 H19       -13.9444   -7.2379    1.0199 H         1 <0>         0.0969
     54 H20       -12.3096   -7.7523    1.5007 H         1 <0>         0.0534
     55 H21        -3.2026    0.3178   -0.6710 H         1 <0>         0.0772
     56 H22        -4.5983    0.4367    0.4272 H         1 <0>         0.0590
     57 H23        -2.9702    0.1459    1.0853 H         1 <0>         0.0746
     58 H24        -3.6809   -3.1124   -2.6246 H         1 <0>         0.1145
     59 H25        -2.7498   -3.8606   -4.7773 H         1 <0>         0.1119
     60 H26        -0.9049   -5.4907   -4.8218 H         1 <0>         0.1151
     61 H27         0.0097   -6.3731   -2.7132 H         1 <0>         0.1171
@<TRIPOS>BOND
     1    1    2 1
     2    1   37 1
     3    1   38 1
     4    1   39 1
     5    2    3 1
     6    2   40 1
     7    2   41 1
     8    3    4 1
     9    4    5 2
    10    4   36 1
    11    5   27 1
    12    5    6 1
    13    6    7 1
    14    6    8 1
    15    6   29 1
    16    8   14 1
    17    8    9 2
    18    9   10 1
    19    9   26 1
    20   10   11 1
    21   10   42 1
    22   10   43 1
    23   11   12 1
    24   11   13 1
    25   11   16 1
    26   13   14 1
    27   13   44 1
    28   13   45 1
    29   14   15 2
    30   16   21 ar
    31   16   17 ar
    32   17   18 ar
    33   17   46 1
    34   18   19 ar
    35   18   47 1
    36   19   20 ar
    37   19   24 1
    38   20   21 ar
    39   20   22 1
    40   21   48 1
    41   22   23 1
    42   23   49 1
    43   23   50 1
    44   23   51 1
    45   24   25 1
    46   25   52 1
    47   25   53 1
    48   25   54 1
    49   26   27 2
    50   27   28 1
    51   28   55 1
    52   28   56 1
    53   28   57 1
    54   29   34 ar
    55   29   30 ar
    56   30   31 ar
    57   30   58 1
    58   31   32 ar
    59   31   59 1
    60   32   33 ar
    61   32   60 1
    62   33   34 ar
    63   33   61 1
    64   34   35 1
@<TRIPOS>MOLECULE
ZINC16917023
   51    53     0     0     0
SMALL
USER_CHARGES
(2S)-2-[4-[(E)-[3-[(2-chlorobenzoyl)amino]-4-oxo-2-thioxo-thiazolidin-5-ylidene]methyl]-2-ethoxy-phenoxy]propanoic acid
@<TRIPOS>ATOM
      1 C1         -0.0072   -4.0142   -1.3631 C.3       1 <0>        -0.1522
      2 C2          0.1376   -3.5524    0.0883 C.3       1 <0>         0.0528
      3 O1          0.4036   -2.1486    0.1173 O.3       1 <0>        -0.2946
      4 C3          0.5604   -1.5750    1.3403 C.ar      1 <0>         0.0835
      5 C4          0.4608   -2.3457    2.4819 C.ar      1 <0>        -0.1318
      6 C5          0.6233   -1.7516    3.7394 C.ar      1 <0>        -0.1370
      7 C6          0.8858   -0.3793    3.8318 C.ar      1 <0>        -0.0277
      8 C7          0.9890    0.3801    2.6872 C.ar      1 <0>        -0.1976
      9 C8          0.8220   -0.2092    1.4411 C.ar      1 <0>         0.1600
     10 O2          0.9194    0.5463    0.3162 O.3       1 <0>        -0.2642
     11 C9          1.0720    1.9561    0.4928 C.3       1 <0>         0.0329
     12 H1          0.4945    2.2784    1.3593 H         1 <0>         0.0754
     13 C10         2.5497    2.2855    0.7136 C.3       1 <0>        -0.1563
     14 C11         0.5757    2.6730   -0.7364 C.2       1 <0>         0.4737
     15 O3          0.1365    2.0414   -1.6680 O.co2     1 <0>        -0.6099
     16 C12         0.5192   -2.5652    4.9574 C.2       1 <0>         0.1318
     17 C13        -0.1418   -2.0837    6.0408 C.2       1 <0>        -0.2622
     18 C14        -0.9623   -0.8636    6.1774 C.2       1 <0>         0.5353
     19 O4         -1.1388   -0.1039    5.2429 O.2       1 <0>        -0.4259
     20 N1         -1.4958   -0.6383    7.3662 N.am      1 <0>        -0.3207
     21 C15        -1.2984   -1.4831    8.3987 C.2       1 <0>         0.2777
     22 S1         -1.8992   -1.3665    9.9976 S.2       1 <0>        -0.3148
     23 S2         -0.2649   -2.7564    7.6925 S.3       1 <0>         0.0934
     24 N2         -2.2845    0.5038    7.5573 N.am      1 <0>        -0.5215
     25 C16        -3.6253    0.3913    7.6363 C.2       1 <0>         0.5706
     26 O5         -4.1502   -0.7010    7.5418 O.2       1 <0>        -0.4810
     27 C17        -4.4571    1.5959    7.8378 C.ar      1 <0>        -0.1205
     28 C18        -3.8572    2.8514    7.9526 C.ar      1 <0>        -0.0688
     29 C19        -4.6395    3.9721    8.1362 C.ar      1 <0>        -0.1201
     30 C20        -6.0163    3.8540    8.2170 C.ar      1 <0>        -0.0737
     31 C21        -6.6180    2.6138    8.1092 C.ar      1 <0>        -0.1191
     32 C22        -5.8471    1.4831    7.9202 C.ar      1 <0>         0.0211
     33 Cl1        -6.6035   -0.0737    7.7861 Cl        1 <0>        -0.0261
     34 H2         -0.8312   -3.4784   -1.8344 H         1 <0>         0.0688
     35 H3          0.9166   -3.8082   -1.9038 H         1 <0>         0.0675
     36 H4         -0.2100   -5.0849   -1.3852 H         1 <0>         0.0746
     37 H5          0.9616   -4.0881    0.5596 H         1 <0>         0.0583
     38 H6         -0.7861   -3.7584    0.6290 H         1 <0>         0.0578
     39 H7          0.2585   -3.4038    2.4050 H         1 <0>         0.1378
     40 H8          1.0122    0.0826    4.7999 H         1 <0>         0.1208
     41 H9          1.1962    1.4376    2.7593 H         1 <0>         0.1437
     42 H10         3.1272    1.9633   -0.1529 H         1 <0>         0.0618
     43 H11         2.6661    3.3609    0.8483 H         1 <0>         0.0803
     44 H12         2.9087    1.7670    1.6026 H         1 <0>         0.0498
     45 H13         0.9685   -3.5467    4.9912 H         1 <0>         0.1601
     46 H14        -1.8657    1.3754    7.6327 H         1 <0>         0.4281
     47 H15        -2.7829    2.9451    7.8943 H         1 <0>         0.1344
     48 H16        -4.1765    4.9441    8.2210 H         1 <0>         0.1406
     49 H17        -6.6235    4.7348    8.3654 H         1 <0>         0.1409
     50 H18        -7.6928    2.5288    8.1732 H         1 <0>         0.1439
     51 O6          0.6217    4.0132   -0.7962 O.co2     1 <0>        -0.7517
@<TRIPOS>BOND
     1    1    2 1
     2    1   34 1
     3    1   35 1
     4    1   36 1
     5    2    3 1
     6    2   37 1
     7    2   38 1
     8    3    4 1
     9    4    9 ar
    10    4    5 ar
    11    5    6 ar
    12    5   39 1
    13    6    7 ar
    14    6   16 1
    15    7    8 ar
    16    7   40 1
    17    8    9 ar
    18    8   41 1
    19    9   10 1
    20   10   11 1
    21   11   12 1
    22   11   13 1
    23   11   14 1
    24   13   42 1
    25   13   43 1
    26   13   44 1
    27   14   15 2
    28   14   51 1
    29   16   17 2
    30   16   45 1
    31   17   23 1
    32   17   18 1
    33   18   19 2
    34   18   20 am
    35   20   21 1
    36   20   24 1
    37   21   22 2
    38   21   23 1
    39   24   25 am
    40   24   46 1
    41   25   26 2
    42   25   27 1
    43   27   32 ar
    44   27   28 ar
    45   28   29 ar
    46   28   47 1
    47   29   30 ar
    48   29   48 1
    49   30   31 ar
    50   30   49 1
    51   31   32 ar
    52   31   50 1
    53   32   33 1
@<TRIPOS>MOLECULE
ZINC28157697
   62    65     0     0     0
SMALL
USER_CHARGES
3-[[2-[(5R)-2-[(5R)-3-(4-fluorophenyl)-5-(4-isopropylphenyl)-4,5-dihydropyrazol-1-yl]-4-oxo-thiazol-5-yl]acetyl]amino]propanoic acid
@<TRIPOS>ATOM
      1 C1          1.1720   -4.0572   -5.3659 C.3       1 <0>        -0.1472
      2 C2          2.4861   -3.5220   -4.7934 C.3       1 <0>        -0.0586
      3 C3          3.1661   -2.6251   -5.8298 C.3       1 <0>        -0.1447
      4 C4          2.2029   -2.7239   -3.5469 C.ar      1 <0>        -0.0651
      5 C5          2.7583   -3.1063   -2.3402 C.ar      1 <0>        -0.1146
      6 C6          2.4985   -2.3742   -1.1968 C.ar      1 <0>        -0.0868
      7 C7          1.6840   -1.2590   -1.2603 C.ar      1 <0>        -0.1058
      8 C8          1.1248   -0.8794   -2.4661 C.ar      1 <0>        -0.0964
      9 C9          1.3881   -1.6090   -3.6103 C.ar      1 <0>        -0.1112
     10 C10         1.4009   -0.4609   -0.0138 C.3       1 <0>         0.1525
     11 H1          1.6121   -1.1293    0.8339 H         1 <0>         0.1186
     12 C11         2.2098    0.8514   -0.0145 C.3       1 <0>        -0.1264
     13 C12         1.1518    1.9315    0.0014 C.2       1 <0>         0.1660
     14 N1         -0.0168    1.3892    0.0097 N.2       1 <0>        -0.2269
     15 N2          0.0021   -0.0041    0.0020 N.pl3     1 <0>        -0.3891
     16 C13        -1.0973   -0.8131    0.0078 C.2       1 <0>         0.5379
     17 N3         -1.1392   -2.1392    0.0010 N.2       1 <0>        -0.6698
     18 C14        -2.2391   -2.8411    0.0073 C.2       1 <0>         0.5417
     19 O1         -2.2346   -4.0568    0.0004 O.2       1 <0>        -0.4611
     20 C15        -3.5295   -2.0311    0.0235 C.3       1 <0>        -0.1330
     21 H2         -4.2394   -2.4003   -0.7313 H         1 <0>         0.1643
     22 S1         -2.8198   -0.3354    0.0340 S.3       1 <0>        -0.0564
     23 C16        -4.3413   -2.2988    1.2925 C.3       1 <0>        -0.1228
     24 C17        -5.6598   -1.5740    1.2077 C.2       1 <0>         0.5075
     25 O2         -5.9242   -0.9088    0.2287 O.2       1 <0>        -0.5398
     26 N4         -6.5451   -1.6651    2.2198 N.am      1 <0>        -0.7325
     27 C18        -7.8269   -0.9605    2.1374 C.3       1 <0>         0.1386
     28 C19        -8.6386   -1.2282    3.4064 C.3       1 <0>        -0.1692
     29 C20        -9.9571   -0.5034    3.3215 C.2       1 <0>         0.4638
     30 O3        -10.2206    0.1593    2.3462 O.co2     1 <0>        -0.6356
     31 O4        -10.8389   -0.5941    4.3295 O.co2     1 <0>        -0.7711
     32 C21         1.4167    3.3820    0.0059 C.ar      1 <0>        -0.0521
     33 C22         2.7313    3.8548    0.0013 C.ar      1 <0>        -0.0532
     34 C23         2.9727    5.2124    0.0012 C.ar      1 <0>        -0.1570
     35 C24         1.9144    6.1073    0.0158 C.ar      1 <0>         0.1230
     36 C25         0.6080    5.6441    0.0253 C.ar      1 <0>        -0.1548
     37 C26         0.3540    4.2889    0.0207 C.ar      1 <0>        -0.0438
     38 F1          2.1571    7.4363    0.0204 F         1 <0>        -0.1335
     39 H3          0.6831   -4.7020   -4.6208 H         1 <0>         0.0584
     40 H4          1.3788   -4.6398   -6.2758 H         1 <0>         0.0594
     41 H5          0.5094   -3.2145   -5.6127 H         1 <0>         0.0571
     42 H6          3.1489   -4.3600   -4.5316 H         1 <0>         0.0785
     43 H7          4.1108   -2.2403   -5.4182 H         1 <0>         0.0558
     44 H8          2.5035   -1.7825   -6.0766 H         1 <0>         0.0571
     45 H9          3.3728   -3.2077   -6.7396 H         1 <0>         0.0591
     46 H10         3.3949   -3.9773   -2.2907 H         1 <0>         0.1239
     47 H11         2.9321   -2.6732   -0.2540 H         1 <0>         0.1243
     48 H12         0.4849   -0.0107   -2.5149 H         1 <0>         0.1127
     49 H13         0.9544   -1.3100   -4.5531 H         1 <0>         0.1213
     50 H14         2.8522    0.8866    0.8778 H         1 <0>         0.1205
     51 H15         2.8350    0.8963   -0.9184 H         1 <0>         0.1202
     52 H16        -4.5225   -3.3793    1.3907 H         1 <0>         0.1203
     53 H17        -3.7813   -1.9399    2.1686 H         1 <0>         0.1006
     54 H18        -6.3052   -2.2685    3.1077 H         1 <0>         0.4172
     55 H19        -7.6457    0.1200    2.0392 H         1 <0>         0.0690
     56 H20        -8.3870   -1.3194    1.2614 H         1 <0>         0.0689
     57 H21        -8.8198   -2.3087    3.5046 H         1 <0>         0.0710
     58 H22        -8.0786   -0.8692    4.2825 H         1 <0>         0.0708
     59 H23         3.5568    3.1585   -0.0056 H         1 <0>         0.1420
     60 H24         3.9885    5.5791   -0.0061 H         1 <0>         0.1440
     61 H25        -0.2126    6.3462    0.0367 H         1 <0>         0.1452
     62 H26        -0.6643    3.9292    0.0288 H         1 <0>         0.1474
@<TRIPOS>BOND
     1    1    2 1
     2    1   39 1
     3    1   40 1
     4    1   41 1
     5    2    3 1
     6    2    4 1
     7    2   42 1
     8    3   43 1
     9    3   44 1
    10    3   45 1
    11    4    9 ar
    12    4    5 ar
    13    5    6 ar
    14    5   46 1
    15    6    7 ar
    16    6   47 1
    17    7    8 ar
    18    7   10 1
    19    8    9 ar
    20    8   48 1
    21    9   49 1
    22   10   11 1
    23   10   15 1
    24   10   12 1
    25   12   13 1
    26   12   50 1
    27   12   51 1
    28   13   14 2
    29   13   32 1
    30   14   15 1
    31   15   16 1
    32   16   22 1
    33   16   17 2
    34   17   18 1
    35   18   19 2
    36   18   20 1
    37   20   21 1
    38   20   22 1
    39   20   23 1
    40   23   24 1
    41   23   52 1
    42   23   53 1
    43   24   25 2
    44   24   26 am
    45   26   27 1
    46   26   54 1
    47   27   28 1
    48   27   55 1
    49   27   56 1
    50   28   29 1
    51   28   57 1
    52   28   58 1
    53   29   30 2
    54   29   31 1
    55   32   37 ar
    56   32   33 ar
    57   33   34 ar
    58   33   59 1
    59   34   35 ar
    60   34   60 1
    61   35   36 ar
    62   35   38 1
    63   36   37 ar
    64   36   61 1
    65   37   62 1
@<TRIPOS>MOLECULE
ZINC39733498
   58    61     0     0     0
SMALL
USER_CHARGES

@<TRIPOS>ATOM
      1 C1          0.8083   -0.9061    2.8816 C.3       1 <0>        -0.1542
      2 C2          0.3126   -1.0303    1.4395 C.3       1 <0>         0.0578
      3 O1         -0.9829   -1.6333    1.4313 O.3       1 <0>        -0.3419
      4 C3         -1.5630   -1.8150    0.2345 C.2       1 <0>         0.4697
      5 O2         -0.9897   -1.4735   -0.7728 O.2       1 <0>        -0.4756
      6 C4         -2.9292   -2.4450    0.1472 C.3       1 <0>        -0.0787
      7 H1         -3.4613   -2.2778    1.0837 H         1 <0>         0.1474
      8 C5         -2.7736   -3.9703   -0.0859 C.3       1 <0>         0.1949
      9 H2         -3.5699   -4.5319    0.4026 H         1 <0>         0.1649
     10 S1         -2.9516   -4.0033   -1.9191 S.3       1 <0>        -0.1243
     11 C6         -3.8127   -2.4559   -2.1325 C.2       1 <0>        -0.1189
     12 C7         -3.6920   -1.8119   -0.9716 C.2       1 <0>        -0.0403
     13 C8         -4.3216   -0.4548   -0.7897 C.3       1 <0>        -0.1275
     14 C9         -4.5127   -1.9869   -3.3427 C.2       1 <0>         0.5471
     15 O3         -5.0598   -0.9020   -3.3460 O.2       1 <0>        -0.4865
     16 O4         -4.5457   -2.7615   -4.4450 O.3       1 <0>        -0.3358
     17 C10        -5.2416   -2.2442   -5.5809 C.3       1 <0>         0.0613
     18 C11        -5.1716   -3.2563   -6.7262 C.3       1 <0>        -0.1532
     19 N1         -1.4531   -4.4452    0.3346 N.am      1 <0>        -0.7020
     20 C12        -1.3439   -5.5701    1.0689 C.2       1 <0>         0.5500
     21 O5         -2.3388   -6.1891    1.3816 O.2       1 <0>        -0.5018
     22 C13         0.0145   -6.0587    1.5014 C.3       1 <0>        -0.1453
     23 S2         -0.1704   -7.5828    2.4675 S.3       1 <0>         0.0565
     24 C14         1.4823   -8.0210    2.8931 C.2       1 <0>         0.0579
     25 N2          2.5706   -7.3627    2.5699 N.2       1 <0>        -0.2488
     26 N3          3.6091   -7.9576    3.0407 N.2       1 <0>        -0.3370
     27 C15         3.2443   -9.0419    3.6991 C.2       1 <0>         0.4470
     28 N4          1.8703   -9.1063    3.6261 N.pl3     1 <0>        -0.4250
     29 C16         1.1918  -10.1322    4.2291 C.2       1 <0>         0.0979
     30 C17         1.8906  -11.0742    4.8969 C.2       1 <0>        -0.1858
     31 C18         3.3002  -10.9779    4.9560 C.2       1 <0>         0.4680
     32 O6          4.0099  -11.9189    5.6231 O.3       1 <0>        -0.6684
     33 N5          3.9288   -9.9866    4.3612 N.2       1 <0>        -0.5707
     34 C19         0.9520  -12.1064    5.4826 C.3       1 <0>        -0.0565
     35 C20        -0.4421  -11.4428    5.4533 C.3       1 <0>        -0.1150
     36 C21        -0.2896  -10.4324    4.2955 C.3       1 <0>        -0.0722
     37 H3          1.7965   -0.4462    2.8878 H         1 <0>         0.0833
     38 H4          0.1157   -0.2868    3.4517 H         1 <0>         0.0669
     39 H5          0.8657   -1.8967    3.3327 H         1 <0>         0.0715
     40 H6          0.2552   -0.0397    0.9884 H         1 <0>         0.0705
     41 H7          1.0052   -1.6496    0.8693 H         1 <0>         0.0734
     42 H8         -3.6104    0.3178   -1.0822 H         1 <0>         0.0855
     43 H9         -5.2136   -0.3818   -1.4118 H         1 <0>         0.1035
     44 H10        -4.5959   -0.3188    0.2564 H         1 <0>         0.0746
     45 H11        -6.2840   -2.0648   -5.3177 H         1 <0>         0.0712
     46 H12        -4.7797   -1.3081   -5.8945 H         1 <0>         0.0706
     47 H13        -5.7024   -2.8617   -7.5926 H         1 <0>         0.0816
     48 H14        -4.1292   -3.4357   -6.9894 H         1 <0>         0.0686
     49 H15        -5.6334   -4.1925   -6.4125 H         1 <0>         0.0692
     50 H16        -0.6573   -3.9501    0.0845 H         1 <0>         0.4099
     51 H17         0.6260   -6.2583    0.6214 H         1 <0>         0.1270
     52 H18         0.4968   -5.2966    2.1137 H         1 <0>         0.1269
     53 H19         0.9543  -13.0096    4.8725 H         1 <0>         0.0786
     54 H20         1.2386  -12.3402    6.5079 H         1 <0>         0.0810
     55 H21        -1.2178  -12.1756    5.2313 H         1 <0>         0.0829
     56 H22        -0.6495  -10.9304    6.3928 H         1 <0>         0.0755
     57 H23        -0.8510   -9.5231    4.5100 H         1 <0>         0.0828
     58 H24        -0.6285  -10.8756    3.3591 H         1 <0>         0.0900
@<TRIPOS>BOND
     1    1    2 1
     2    1   37 1
     3    1   38 1
     4    1   39 1
     5    2    3 1
     6    2   40 1
     7    2   41 1
     8    3    4 1
     9    4    5 2
    10    4    6 1
    11    6    7 1
    12    6   12 1
    13    6    8 1
    14    8    9 1
    15    8   10 1
    16    8   19 1
    17   10   11 1
    18   11   12 2
    19   11   14 1
    20   12   13 1
    21   13   42 1
    22   13   43 1
    23   13   44 1
    24   14   15 2
    25   14   16 1
    26   16   17 1
    27   17   18 1
    28   17   45 1
    29   17   46 1
    30   18   47 1
    31   18   48 1
    32   18   49 1
    33   19   20 am
    34   19   50 1
    35   20   21 2
    36   20   22 1
    37   22   23 1
    38   22   51 1
    39   22   52 1
    40   23   24 1
    41   24   28 1
    42   24   25 2
    43   25   26 1
    44   26   27 2
    45   27   33 1
    46   27   28 1
    47   28   29 1
    48   29   36 1
    49   29   30 2
    50   30   31 1
    51   30   34 1
    52   31   32 1
    53   31   33 2
    54   34   35 1
    55   34   53 1
    56   34   54 1
    57   35   36 1
    58   35   55 1
    59   35   56 1
    60   36   57 1
    61   36   58 1
@<TRIPOS>MOLECULE
ZINC41534971
   73    76     0     0     0
SMALL
USER_CHARGES

@<TRIPOS>ATOM
      1 C1         -1.3115    2.7714   -1.3817 C.3       1 <0>        -0.1495
      2 C2         -1.2215    1.3077   -0.9455 C.3       1 <0>        -0.1214
      3 C3         -2.5980    0.6521   -1.0727 C.3       1 <0>         0.0584
      4 O1         -2.5140   -0.7150   -0.6653 O.3       1 <0>        -0.3087
      5 C4         -3.6592   -1.4466   -0.7183 C.ar      1 <0>         0.0934
      6 C5         -4.8363   -0.8627   -1.1582 C.ar      1 <0>        -0.1737
      7 C6         -5.9995   -1.6079   -1.2119 C.ar      1 <0>        -0.0780
      8 C7         -5.9918   -2.9357   -0.8270 C.ar      1 <0>        -0.0597
      9 C8         -4.8209   -3.5242   -0.3866 C.ar      1 <0>        -0.1610
     10 C9         -3.6502   -2.7846   -0.3363 C.ar      1 <0>         0.0956
     11 O2         -2.4962   -3.3636    0.0910 O.3       1 <0>        -0.3106
     12 C10        -2.5409   -4.7620    0.3815 C.3       1 <0>         0.0280
     13 C11        -7.2627   -3.7433   -0.8870 C.3       1 <0>         0.2662
     14 H1         -7.1147   -4.7107   -0.4071 H         1 <0>         0.0676
     15 C12        -7.6886   -3.9358   -2.3238 C.2       1 <0>        -0.4902
     16 C13        -8.9080   -3.3642   -2.4496 C.2       1 <0>         0.2531
     17 C14        -9.3146   -2.7954   -1.1480 C.2       1 <0>         0.5093
     18 O3        -10.3612   -2.2154   -0.9369 O.2       1 <0>        -0.5390
     19 N1         -8.3546   -3.0156   -0.2295 N.am      1 <0>        -0.6129
     20 C15        -8.3923   -2.6024    1.1755 C.3       1 <0>         0.1440
     21 C16        -7.7823   -1.2060    1.3130 C.3       1 <0>         0.0335
     22 N2         -7.8201   -0.7916    2.7218 N.3       1 <0>        -0.5320
     23 C17        -9.2048   -0.6079    3.1800 C.3       1 <0>         0.0117
     24 C18        -9.2002   -0.2356    4.6650 C.3       1 <0>         0.0656
     25 O4         -8.4068    0.9391    4.8544 O.3       1 <0>        -0.3882
     26 C19        -7.0520    0.7952    4.4195 C.3       1 <0>         0.0659
     27 C20        -7.0349    0.4334    2.9319 C.3       1 <0>         0.0192
     28 O5         -9.6396   -3.3203   -3.5873 O.3       1 <0>        -0.6644
     29 C21        -6.9261   -4.6120   -3.3793 C.2       1 <0>         0.5405
     30 O6         -5.9962   -4.0413   -3.9193 O.2       1 <0>        -0.4907
     31 C22        -7.2857   -5.9813   -3.7855 C.2       1 <0>        -0.2268
     32 C23        -6.7058   -6.7568   -4.8874 C.2       1 <0>        -0.1150
     33 C24        -7.3347   -7.9450   -4.8874 C.2       1 <0>        -0.0203
     34 N3         -8.2525   -7.9646   -3.8777 N.pl3     1 <0>        -0.5525
     35 H2         -8.8338   -8.7134   -3.6720 H         1 <0>         0.4061
     36 C25        -8.2326   -6.7989   -3.2037 C.2       1 <0>         0.1036
     37 C26        -9.0977   -6.4468   -2.0210 C.3       1 <0>        -0.0877
     38 C27        -7.0689   -9.0746   -5.8490 C.3       1 <0>        -0.0749
     39 C28        -5.6204   -6.3099   -5.8326 C.3       1 <0>        -0.0761
     40 H3         -0.3308    3.2385   -1.2911 H         1 <0>         0.0617
     41 H4         -1.6435    2.8218   -2.4187 H         1 <0>         0.0576
     42 H5         -2.0242    3.2968   -0.7461 H         1 <0>         0.0564
     43 H6         -0.5087    0.7823   -1.5812 H         1 <0>         0.0722
     44 H7         -0.8895    1.2573    0.0915 H         1 <0>         0.0712
     45 H8         -3.3108    1.1775   -0.4371 H         1 <0>         0.0571
     46 H9         -2.9300    0.7025   -2.1097 H         1 <0>         0.0597
     47 H10        -4.8452    0.1745   -1.4589 H         1 <0>         0.1271
     48 H11        -6.9163   -1.1517   -1.5550 H         1 <0>         0.1188
     49 H12        -4.8177   -4.5615   -0.0861 H         1 <0>         0.1296
     50 H13        -1.5698   -5.0867    0.7551 H         1 <0>         0.0941
     51 H14        -3.3030   -4.9520    1.1372 H         1 <0>         0.0521
     52 H15        -2.7839   -5.3141   -0.5264 H         1 <0>         0.0540
     53 H16        -9.4259   -2.5830    1.5210 H         1 <0>         0.0758
     54 H17        -7.8212   -3.3092    1.7775 H         1 <0>         0.0813
     55 H18        -6.7487   -1.2253    0.9675 H         1 <0>         0.0888
     56 H19        -8.3534   -0.4992    0.7110 H         1 <0>         0.0389
     57 H20        -9.6752    0.1906    2.6061 H         1 <0>         0.0442
     58 H21        -9.7610   -1.5346    3.0388 H         1 <0>         0.0895
     59 H22       -10.2209   -0.0426    4.9951 H         1 <0>         0.0961
     60 H23        -8.7787   -1.0568    5.2448 H         1 <0>         0.0589
     61 H24        -6.5191    1.7338    4.5719 H         1 <0>         0.0954
     62 H25        -6.5681    0.0040    4.9920 H         1 <0>         0.0590
     63 H26        -6.0071    0.2667    2.6097 H         1 <0>         0.0857
     64 H27        -7.4706    1.2485    2.3541 H         1 <0>         0.0417
     65 H28        -9.9691   -5.8877   -2.3619 H         1 <0>         0.0831
     66 H29        -9.4239   -7.3608   -1.5245 H         1 <0>         0.0494
     67 H30        -8.5260   -5.8374   -1.3212 H         1 <0>         0.0941
     68 H31        -6.2935   -9.7234   -5.4419 H         1 <0>         0.0636
     69 H32        -7.9834   -9.6493   -5.9960 H         1 <0>         0.0569
     70 H33        -6.7378   -8.6680   -6.8045 H         1 <0>         0.0758
     71 H34        -4.6473   -6.5783   -5.4213 H         1 <0>         0.0574
     72 H35        -5.7546   -6.7991   -6.7973 H         1 <0>         0.0506
     73 H36        -5.6743   -5.2290   -5.9627 H         1 <0>         0.0741
@<TRIPOS>BOND
     1    1    2 1
     2    1   40 1
     3    1   41 1
     4    1   42 1
     5    2    3 1
     6    2   43 1
     7    2   44 1
     8    3    4 1
     9    3   45 1
    10    3   46 1
    11    4    5 1
    12    5   10 ar
    13    5    6 ar
    14    6    7 ar
    15    6   47 1
    16    7    8 ar
    17    7   48 1
    18    8    9 ar
    19    8   13 1
    20    9   10 ar
    21    9   49 1
    22   10   11 1
    23   11   12 1
    24   12   50 1
    25   12   51 1
    26   12   52 1
    27   13   14 1
    28   13   19 1
    29   13   15 1
    30   15   16 2
    31   15   29 1
    32   16   17 1
    33   16   28 1
    34   17   18 2
    35   17   19 am
    36   19   20 1
    37   20   21 1
    38   20   53 1
    39   20   54 1
    40   21   22 1
    41   21   55 1
    42   21   56 1
    43   22   27 1
    44   22   23 1
    45   23   24 1
    46   23   57 1
    47   23   58 1
    48   24   25 1
    49   24   59 1
    50   24   60 1
    51   25   26 1
    52   26   27 1
    53   26   61 1
    54   26   62 1
    55   27   63 1
    56   27   64 1
    57   29   30 2
    58   29   31 1
    59   31   36 2
    60   31   32 1
    61   32   33 2
    62   32   39 1
    63   33   34 1
    64   33   38 1
    65   34   35 1
    66   34   36 1
    67   36   37 1
    68   37   65 1
    69   37   66 1
    70   37   67 1
    71   38   68 1
    72   38   69 1
    73   38   70 1
    74   39   71 1
    75   39   72 1
    76   39   73 1
@<TRIPOS>MOLECULE
ZINC39964926
   61    64     0     0     0
SMALL
USER_CHARGES

@<TRIPOS>ATOM
      1 C1         -0.0187    1.5258    0.0104 C.3       1 <0>        -0.1552
      2 C2          0.0021   -0.0041    0.0020 C.3       1 <0>         0.0634
      3 O1         -1.3386   -0.4987    0.0122 O.3       1 <0>        -0.3412
      4 C3         -1.4964   -1.8317    0.0065 C.2       1 <0>         0.4726
      5 O2         -0.5283   -2.5546   -0.0066 O.2       1 <0>        -0.4918
      6 C4         -2.8809   -2.4266    0.0165 C.3       1 <0>        -0.0664
      7 H1         -3.4067   -2.0883    0.9094 H         1 <0>         0.1349
      8 C5         -3.6486   -1.9410   -1.2364 C.3       1 <0>         0.2090
      9 H2         -2.9704   -1.7200   -2.0606 H         1 <0>         0.1431
     10 S1         -4.6384   -3.4596   -1.5639 S.3       1 <0>        -0.1900
     11 C6         -3.6141   -4.6269   -0.6991 C.2       1 <0>        -0.0787
     12 C7         -2.7706   -3.9301    0.0500 C.2       1 <0>        -0.1324
     13 C8         -1.7267   -4.6320    0.9163 C.3       1 <0>        -0.0585
     14 C9         -2.1424   -6.0879    1.1218 C.3       1 <0>        -0.1229
     15 C10        -2.4215   -6.7368   -0.2377 C.3       1 <0>        -0.1162
     16 C11        -3.7006   -6.1235   -0.8110 C.3       1 <0>        -0.0499
     17 N1         -4.5068   -0.7938   -0.9303 N.am      1 <0>        -0.6984
     18 C12        -4.5302    0.2699   -1.7575 C.2       1 <0>         0.5471
     19 O3         -3.8408    0.2775   -2.7553 O.2       1 <0>        -0.5060
     20 C13        -5.4130    1.4500   -1.4427 C.3       1 <0>        -0.1398
     21 S2         -5.2231    2.7090   -2.7348 S.3       1 <0>         0.0291
     22 C14        -6.3040    4.0053   -2.2290 C.2       1 <0>         0.0594
     23 N2         -6.5142    5.1860   -2.8822 N.2       1 <0>        -0.5369
     24 C15        -7.4312    5.8734   -2.1209 C.2       1 <0>         0.0952
     25 N3         -7.7219    5.1149   -1.0898 N.2       1 <0>        -0.3313
     26 N4         -7.0627    4.0137   -1.1556 N.2       1 <0>        -0.3631
     27 C16        -7.9845    7.2137   -2.4096 C.ar      1 <0>         0.1292
     28 C17        -7.5840    7.9043   -3.5538 C.ar      1 <0>        -0.1693
     29 C18        -8.1047    9.1597   -3.8205 C.ar      1 <0>         0.1561
     30 C19        -9.0231    9.7309   -2.9513 C.ar      1 <0>        -0.3125
     31 C20        -9.4241    9.0475   -1.8124 C.ar      1 <0>         0.1565
     32 C21        -8.9129    7.7891   -1.5415 C.ar      1 <0>        -0.1715
     33 O4        -10.3239    9.6114   -0.9643 O.3       1 <0>        -0.3156
     34 C22       -10.8146   10.9088   -1.3079 C.3       1 <0>         0.0301
     35 O5         -7.7152    9.8332   -4.9347 O.3       1 <0>        -0.3154
     36 C23        -8.2920   11.1231   -5.1480 C.3       1 <0>         0.0301
     37 H3          1.0039    1.9031    0.0027 H         1 <0>         0.0796
     38 H4         -0.5459    1.8868   -0.8726 H         1 <0>         0.0733
     39 H5         -0.5289    1.8773    0.9072 H         1 <0>         0.0673
     40 H6          0.5123   -0.3556   -0.8948 H         1 <0>         0.0682
     41 H7          0.5293   -0.3651    0.8851 H         1 <0>         0.0665
     42 H8         -0.7574   -4.5967    0.4191 H         1 <0>         0.0969
     43 H9         -1.6599   -4.1324    1.8828 H         1 <0>         0.0684
     44 H10        -1.3395   -6.6275    1.6239 H         1 <0>         0.0691
     45 H11        -3.0435   -6.1254    1.7340 H         1 <0>         0.0646
     46 H12        -1.5865   -6.5474   -0.9122 H         1 <0>         0.0697
     47 H13        -2.5565   -7.8108   -0.1099 H         1 <0>         0.0727
     48 H14        -4.5648   -6.4823   -0.2520 H         1 <0>         0.0855
     49 H15        -3.7978   -6.4065   -1.8591 H         1 <0>         0.0846
     50 H16        -5.0582   -0.7999   -0.1323 H         1 <0>         0.4125
     51 H17        -6.4527    1.1253   -1.4018 H         1 <0>         0.1167
     52 H18        -5.1260    1.8717   -0.4795 H         1 <0>         0.1173
     53 H19        -6.8686    7.4607   -4.2305 H         1 <0>         0.1372
     54 H20        -9.4267   10.7103   -3.1618 H         1 <0>         0.1262
     55 H21        -9.2290    7.2559   -0.6570 H         1 <0>         0.1373
     56 H22       -11.5232   11.2418   -0.5496 H         1 <0>         0.0953
     57 H23        -9.9818   11.6102   -1.3599 H         1 <0>         0.0507
     58 H24       -11.3130   10.8641   -2.2762 H         1 <0>         0.0507
     59 H25        -7.8968   11.5500   -6.0697 H         1 <0>         0.0954
     60 H26        -9.3750   11.0283   -5.2267 H         1 <0>         0.0507
     61 H27        -8.0443   11.7749   -4.3102 H         1 <0>         0.0506
@<TRIPOS>BOND
     1    1    2 1
     2    1   37 1
     3    1   38 1
     4    1   39 1
     5    2    3 1
     6    2   40 1
     7    2   41 1
     8    3    4 1
     9    4    5 2
    10    4    6 1
    11    6    7 1
    12    6   12 1
    13    6    8 1
    14    8    9 1
    15    8   10 1
    16    8   17 1
    17   10   11 1
    18   11   16 1
    19   11   12 2
    20   12   13 1
    21   13   14 1
    22   13   42 1
    23   13   43 1
    24   14   15 1
    25   14   44 1
    26   14   45 1
    27   15   16 1
    28   15   46 1
    29   15   47 1
    30   16   48 1
    31   16   49 1
    32   17   18 am
    33   17   50 1
    34   18   19 2
    35   18   20 1
    36   20   21 1
    37   20   51 1
    38   20   52 1
    39   21   22 1
    40   22   23 1
    41   22   26 2
    42   23   24 1
    43   24   27 1
    44   24   25 2
    45   25   26 1
    46   27   32 ar
    47   27   28 ar
    48   28   29 ar
    49   28   53 1
    50   29   30 ar
    51   29   35 1
    52   30   31 ar
    53   30   54 1
    54   31   32 ar
    55   31   33 1
    56   32   55 1
    57   33   34 1
    58   34   56 1
    59   34   57 1
    60   34   58 1
    61   35   36 1
    62   36   59 1
    63   36   60 1
    64   36   61 1
@<TRIPOS>MOLECULE
ZINC08872009
   56    59     0     0     0
SMALL
USER_CHARGES
2-[(E)-[[4,6-bis(1-piperidyl)-1,3,5-triazin-2-yl]hydrazono]methyl]-4-bromo-6-nitro-phenol
@<TRIPOS>ATOM
      1 C1          5.6629   -3.9835   -5.5389 C.ar      1 <0>         0.0179
      2 C2          6.1999   -4.5138   -6.6947 C.ar      1 <0>        -0.2200
      3 C3          5.6685   -4.1786   -7.9287 C.ar      1 <0>         0.0414
      4 C4          4.5960   -3.3102   -8.0153 C.ar      1 <0>        -0.1879
      5 C5          4.0422   -2.7736   -6.8653 C.ar      1 <0>         0.3229
      6 C6          4.5798   -3.1056   -5.6141 C.ar      1 <0>        -0.1737
      7 C7          4.0010   -2.5359   -4.3840 C.2       1 <0>         0.1167
      8 N1          2.9941   -1.7202   -4.4580 N.2       1 <0>        -0.1640
      9 N2          2.4440   -1.1787   -3.2888 N.pl3     1 <0>        -0.5470
     10 C8          1.3729   -0.3109   -3.3675 C.ar      1 <0>         0.6581
     11 N3          0.8637    0.0113   -4.5529 N.ar      1 <0>        -0.5885
     12 C9         -0.1671    0.8471   -4.6285 C.ar      1 <0>         0.5752
     13 N4         -0.6923    1.3569   -3.5186 N.ar      1 <0>        -0.6143
     14 C10        -0.1802    1.0389   -2.3337 C.ar      1 <0>         0.5772
     15 N5          0.8507    0.2032   -2.2578 N.ar      1 <0>        -0.6582
     16 N6         -0.7225    1.5721   -1.1820 N.pl3     1 <0>        -0.4529
     17 C11        -0.0127    1.0858    0.0080 C.3       1 <0>         0.0702
     18 C12        -0.7286    1.5791    1.2674 C.3       1 <0>        -0.1197
     19 C13        -0.7644    3.1099    1.2618 C.3       1 <0>        -0.1249
     20 C14        -1.4660    3.5913   -0.0113 C.3       1 <0>        -0.1166
     21 C15        -0.7289    3.0396   -1.2338 C.3       1 <0>         0.0681
     22 N7         -0.6956    1.1815   -5.8588 N.pl3     1 <0>        -0.4542
     23 C16        -2.1326    0.8843   -5.9127 C.3       1 <0>         0.0696
     24 C17        -2.7124    1.3996   -7.2319 C.3       1 <0>        -0.1147
     25 C18        -1.9884    0.7246   -8.4002 C.3       1 <0>        -0.1248
     26 C19        -0.4877    1.0094   -8.2935 C.3       1 <0>        -0.1181
     27 C20         0.0275    0.5054   -6.9435 C.3       1 <0>         0.0749
     28 N8          4.0353   -2.9582   -9.3392 N.pl3     1 <0>         0.0656
     29 O1          4.5188   -3.4334  -10.3512 O.2       1 <0>        -0.2615
     30 O2          3.0906   -2.1934   -9.4167 O.3       1 <0>        -0.1495
     31 Br1         7.6672   -5.7023   -6.5926 Br        1 <0>        -0.0748
     32 H1          6.0800   -4.2469   -4.5782 H         1 <0>         0.1251
     33 H2          6.0939   -4.5979   -8.8284 H         1 <0>         0.1332
     34 H3          4.4147   -2.7973   -3.4212 H         1 <0>         0.1061
     35 H4          2.8155   -1.4134   -2.4241 H         1 <0>         0.3882
     36 H5          0.0021   -0.0041    0.0020 H         1 <0>         0.0884
     37 H6          1.0099    1.4629    0.0003 H         1 <0>         0.0520
     38 H7         -1.7471    1.1912    1.2827 H         1 <0>         0.0719
     39 H8         -0.1928    1.2311    2.1505 H         1 <0>         0.0728
     40 H9          0.2538    3.4983    1.2857 H         1 <0>         0.0609
     41 H10        -1.3112    3.4647    2.1354 H         1 <0>         0.0666
     42 H11        -1.4570    4.6808   -0.0419 H         1 <0>         0.0738
     43 H12        -2.4961    3.2350   -0.0160 H         1 <0>         0.0751
     44 H13         0.2971    3.4074   -1.2358 H         1 <0>         0.0430
     45 H14        -1.2345    3.3688   -2.1416 H         1 <0>         0.0975
     46 H15        -2.2834   -0.1932   -5.8460 H         1 <0>         0.0428
     47 H16        -2.6362    1.3736   -5.0790 H         1 <0>         0.0919
     48 H17        -2.5743    2.4790   -7.2931 H         1 <0>         0.0726
     49 H18        -3.7758    1.1649   -7.2784 H         1 <0>         0.0705
     50 H19        -2.3683    1.1207   -9.3419 H         1 <0>         0.0647
     51 H20        -2.1586   -0.3514   -8.3614 H         1 <0>         0.0618
     52 H21        -0.3146    2.0828   -8.3714 H         1 <0>         0.0659
     53 H22         0.0382    0.4961   -9.0984 H         1 <0>         0.0815
     54 H23         1.0929    0.7196   -6.8585 H         1 <0>         0.0985
     55 H24        -0.1335   -0.5702   -6.8721 H         1 <0>         0.0610
     56 O3          2.9848   -1.9249   -6.9496 O.3       1 <0>        -0.5583
@<TRIPOS>BOND
     1    1    6 ar
     2    1    2 ar
     3    1   32 1
     4    2    3 ar
     5    2   31 1
     6    3    4 ar
     7    3   33 1
     8    4    5 ar
     9    4   28 1
    10    5    6 ar
    11    5   56 1
    12    6    7 1
    13    7    8 2
    14    7   34 1
    15    8    9 1
    16    9   10 1
    17    9   35 1
    18   10   15 ar
    19   10   11 ar
    20   11   12 ar
    21   12   13 ar
    22   12   22 1
    23   13   14 ar
    24   14   15 ar
    25   14   16 1
    26   16   21 1
    27   16   17 1
    28   17   18 1
    29   17   36 1
    30   17   37 1
    31   18   19 1
    32   18   38 1
    33   18   39 1
    34   19   20 1
    35   19   40 1
    36   19   41 1
    37   20   21 1
    38   20   42 1
    39   20   43 1
    40   21   44 1
    41   21   45 1
    42   22   27 1
    43   22   23 1
    44   23   24 1
    45   23   46 1
    46   23   47 1
    47   24   25 1
    48   24   48 1
    49   24   49 1
    50   25   26 1
    51   25   50 1
    52   25   51 1
    53   26   27 1
    54   26   52 1
    55   26   53 1
    56   27   54 1
    57   27   55 1
    58   28   29 2
    59   28   30 1
@<TRIPOS>MOLECULE
ZINC35904234
   68    71     0     0     0
SMALL
USER_CHARGES

@<TRIPOS>ATOM
      1 C1          1.8543    1.1350   -1.6413 C.3       1 <0>        -0.1484
      2 C2          1.4639   -0.2955   -1.2643 C.3       1 <0>         0.0560
      3 O1          0.0429   -0.4334   -1.3260 O.3       1 <0>        -0.3183
      4 C3         -0.4729   -1.6531   -1.0175 C.ar      1 <0>         0.1128
      5 C4          0.3699   -2.6927   -0.6577 C.ar      1 <0>        -0.1977
      6 C5         -0.1561   -3.9319   -0.3439 C.ar      1 <0>         0.0263
      7 C6         -1.5227   -4.1378   -0.3885 C.ar      1 <0>        -0.0585
      8 C7         -2.3690   -3.1055   -0.7470 C.ar      1 <0>        -0.0920
      9 C8         -1.8488   -1.8587   -1.0568 C.ar      1 <0>         0.0322
     10 O2         -2.6804   -0.8404   -1.4039 O.3       1 <0>        -0.2831
     11 C9         -2.8194   -0.5557   -2.7131 C.2       1 <0>         0.4925
     12 O3         -2.2834   -1.2573   -3.5476 O.2       1 <0>        -0.4764
     13 C10        -3.6236    0.6096   -3.1342 C.ar      1 <0>        -0.1133
     14 C11        -4.2362    1.4215   -2.1775 C.ar      1 <0>        -0.0597
     15 C12        -4.9854    2.5085   -2.5777 C.ar      1 <0>        -0.1305
     16 C13        -5.1305    2.7950   -3.9236 C.ar      1 <0>        -0.0443
     17 C14        -4.5261    1.9946   -4.8769 C.ar      1 <0>        -0.1340
     18 C15        -3.7698    0.9076   -4.4905 C.ar      1 <0>        -0.0541
     19 C16        -5.9509    3.9838   -4.3532 C.3       1 <0>        -0.0330
     20 C17        -5.3464    5.2602   -3.7645 C.3       1 <0>        -0.1389
     21 C18        -5.9522    4.0775   -5.8803 C.3       1 <0>        -0.1462
     22 C19        -7.3868    3.8209   -3.8509 C.3       1 <0>        -0.1393
     23 C20         0.7619   -5.0612    0.0471 C.3       1 <0>         0.1506
     24 C21         0.6456   -5.3132    1.5283 C.2       1 <0>        -0.2492
     25 C22         1.6094   -5.0977    2.4461 C.2       1 <0>         0.1515
     26 N1          1.1228   -5.4461    3.6741 N.pl3     1 <0>        -0.5093
     27 N2         -0.1945   -5.8951    3.5110 N.am      1 <0>        -0.5330
     28 C23        -0.4961   -5.8113    2.1991 C.2       1 <0>         0.5440
     29 O4         -1.5579   -6.1128    1.6846 O.2       1 <0>        -0.5227
     30 C24         2.9902   -4.5635    2.1649 C.3       1 <0>        -0.0974
     31 C25         0.3745   -6.3074   -0.7064 C.2       1 <0>        -0.4060
     32 C26         0.6130   -7.6236   -0.2992 C.2       1 <0>         0.1095
     33 N3          0.1327   -8.4289   -1.2115 N.2       1 <0>        -0.3845
     34 N4         -0.4293   -7.6526   -2.2330 N.pl3     1 <0>        -0.5451
     35 H1         -0.8575   -7.9891   -3.0357 H         1 <0>         0.4058
     36 C27        -0.2744   -6.3520   -1.9002 C.2       1 <0>         0.4179
     37 O5         -0.6893   -5.2835   -2.6276 O.3       1 <0>        -0.7167
     38 C28         1.3054   -8.0426    0.9721 C.3       1 <0>        -0.0557
     39 H2          2.9382    1.2402   -1.5943 H         1 <0>         0.0738
     40 H3          1.5119    1.3503   -2.6535 H         1 <0>         0.0625
     41 H4          1.3909    1.8337   -0.9447 H         1 <0>         0.0621
     42 H5          1.9273   -0.9942   -1.9609 H         1 <0>         0.0604
     43 H6          1.8063   -0.5108   -0.2521 H         1 <0>         0.0580
     44 H7          1.4377   -2.5348   -0.6228 H         1 <0>         0.1201
     45 H8         -1.9297   -5.1075   -0.1430 H         1 <0>         0.1419
     46 H9         -3.4360   -3.2692   -0.7817 H         1 <0>         0.1186
     47 H10        -4.1241    1.1988   -1.1267 H         1 <0>         0.1384
     48 H11        -5.4601    3.1371   -1.8388 H         1 <0>         0.1277
     49 H12        -4.6437    2.2237   -5.9258 H         1 <0>         0.1342
     50 H13        -3.2949    0.2863   -5.2354 H         1 <0>         0.1370
     51 H14        -4.3234    5.3762   -4.1223 H         1 <0>         0.0575
     52 H15        -5.9398    6.1201   -4.0752 H         1 <0>         0.0586
     53 H16        -5.3454    5.1934   -2.6765 H         1 <0>         0.0586
     54 H17        -6.3829    3.1683   -6.2997 H         1 <0>         0.0604
     55 H18        -6.5456    4.9374   -6.1911 H         1 <0>         0.0583
     56 H19        -4.9292    4.1936   -6.2382 H         1 <0>         0.0602
     57 H20        -7.3858    3.7541   -2.7630 H         1 <0>         0.0587
     58 H21        -7.9802    4.6808   -4.1617 H         1 <0>         0.0586
     59 H22        -7.8175    2.9116   -4.2703 H         1 <0>         0.0578
     60 H23         1.7903   -4.7943   -0.1964 H         1 <0>         0.0547
     61 H24         2.9797   -3.4756    2.2326 H         1 <0>         0.0831
     62 H25         3.6915   -4.9663    2.8957 H         1 <0>         0.0710
     63 H26         3.2982   -4.8622    1.1629 H         1 <0>         0.0957
     64 H27         0.5681   -8.1564    1.7668 H         1 <0>         0.0502
     65 H28         1.8162   -8.9920    0.8116 H         1 <0>         0.0479
     66 H29         2.0326   -7.2824    1.2573 H         1 <0>         0.0612
     67 H30         1.6056   -5.3920    4.5137 H         1 <0>         0.4343
     68 H31        -0.7845   -6.2063    4.2152 H         1 <0>         0.4267
@<TRIPOS>BOND
     1    1    2 1
     2    1   39 1
     3    1   40 1
     4    1   41 1
     5    2    3 1
     6    2   42 1
     7    2   43 1
     8    3    4 1
     9    4    9 ar
    10    4    5 ar
    11    5    6 ar
    12    5   44 1
    13    6    7 ar
    14    6   23 1
    15    7    8 ar
    16    7   45 1
    17    8    9 ar
    18    8   46 1
    19    9   10 1
    20   10   11 1
    21   11   12 2
    22   11   13 1
    23   13   18 ar
    24   13   14 ar
    25   14   15 ar
    26   14   47 1
    27   15   16 ar
    28   15   48 1
    29   16   17 ar
    30   16   19 1
    31   17   18 ar
    32   17   49 1
    33   18   50 1
    34   19   20 1
    35   19   21 1
    36   19   22 1
    37   20   51 1
    38   20   52 1
    39   20   53 1
    40   21   54 1
    41   21   55 1
    42   21   56 1
    43   22   57 1
    44   22   58 1
    45   22   59 1
    46   23   24 1
    47   23   31 1
    48   23   60 1
    49   24   28 1
    50   24   25 2
    51   25   30 1
    52   25   26 1
    53   26   67 1
    54   26   27 1
    55   27   28 am
    56   27   68 1
    57   28   29 2
    58   30   61 1
    59   30   62 1
    60   30   63 1
    61   31   36 2
    62   31   32 1
    63   32   38 1
    64   32   33 2
    65   33   34 1
    66   34   36 1
    67   34   35 1
    68   36   37 1
    69   38   64 1
    70   38   65 1
    71   38   66 1
@<TRIPOS>MOLECULE
ZINC36058685
   62    65     0     0     0
SMALL
USER_CHARGES

@<TRIPOS>ATOM
      1 C1         -0.4300    1.8798    0.0757 C.3       1 <0>        -0.0918
      2 C2         -0.2915    0.3926    0.2755 C.2       1 <0>         0.3085
      3 C3         -1.4226   -0.3922    0.3934 C.2       1 <0>        -0.3898
      4 C4         -1.2314   -1.8793    0.5922 C.3       1 <0>         0.2775
      5 H1         -1.7421   -2.3949   -0.2211 H         1 <0>         0.0691
      6 N1          0.1677   -2.3806    0.6450 N.pl3     1 <0>        -0.5050
      7 C5          0.5760   -3.6883    0.8168 C.2       1 <0>         0.2339
      8 C6          1.9048   -3.9329    0.8353 C.2       1 <0>        -0.3053
      9 S1          2.5832   -2.3011    0.6081 S.3       1 <0>         0.1257
     10 C7          1.1475   -1.4375    0.5073 C.2       1 <0>         0.3421
     11 N2          0.9123   -0.1535    0.3314 N.2       1 <0>        -0.5935
     12 C8         -0.4003   -4.7759    0.9743 C.2       1 <0>        -0.4613
     13 C9          0.0204   -6.0212    1.2682 C.2       1 <0>         0.4997
     14 O1          1.3469   -6.2958    1.3115 O.3       1 <0>        -0.7032
     15 N3         -0.9023   -7.0209    1.5260 N.pl3     1 <0>        -0.7527
     16 C10        -0.4464   -8.3461    1.9530 C.3       1 <0>         0.2194
     17 C11        -1.6276   -9.2773    2.0476 C.2       1 <0>        -0.0143
     18 C12        -2.0981  -10.0543    1.0555 C.2       1 <0>        -0.2007
     19 C13        -3.2076  -10.7581    1.5776 C.2       1 <0>        -0.2160
     20 C14        -3.3487  -10.3691    2.8575 C.2       1 <0>        -0.0467
     21 O2         -2.3854   -9.4764    3.1383 O.3       1 <0>        -0.1730
     22 C15        -1.9111   -2.2663    1.8803 C.ar      1 <0>        -0.1402
     23 C16        -3.1074   -2.9576    1.8491 C.ar      1 <0>        -0.0032
     24 C17        -3.7329   -3.3138    3.0283 C.ar      1 <0>        -0.2438
     25 C18        -3.1610   -2.9781    4.2475 C.ar      1 <0>         0.1622
     26 C19        -1.9612   -2.2847    4.2815 C.ar      1 <0>        -0.2477
     27 C20        -1.3325   -1.9333    3.0966 C.ar      1 <0>         0.1907
     28 O3         -0.1531   -1.2588    3.1267 O.3       1 <0>        -0.2976
     29 C21         0.4384   -1.0430    4.4095 C.3       1 <0>         0.0288
     30 O4         -3.7770   -3.3284    5.4071 O.3       1 <0>        -0.3205
     31 C22        -5.0106   -4.0410    5.2968 C.3       1 <0>         0.0306
     32 C23        -2.7031    0.1706    0.3315 C.2       1 <0>         0.5372
     33 O5         -2.8348    1.3810    0.2769 O.2       1 <0>        -0.5532
     34 O6         -3.7931   -0.6284    0.3322 O.3       1 <0>        -0.3520
     35 C24        -5.0618    0.0050    0.1552 C.3       1 <0>         0.0963
     36 C25        -6.1588   -1.0175    0.3041 C.2       1 <0>        -0.1457
     37 C26        -7.1925   -0.7627    1.0674 C.2       1 <0>        -0.1807
     38 H2          0.5598    2.3300   -0.0005 H         1 <0>         0.0625
     39 H3         -0.9884    2.0729   -0.8403 H         1 <0>         0.0813
     40 H4         -0.9616    2.3124    0.9233 H         1 <0>         0.0867
     41 H5          2.4216   -4.8734    0.9569 H         1 <0>         0.2350
     42 H6         -1.4549   -4.5764    0.8545 H         1 <0>         0.0869
     43 H7         -1.8505   -6.8438    1.4238 H         1 <0>         0.3871
     44 H8          0.2667   -8.7364    1.2269 H         1 <0>         0.0881
     45 H9          0.0339   -8.2682    2.9283 H         1 <0>         0.0639
     46 H10        -1.7043  -10.1263    0.0524 H         1 <0>         0.1481
     47 H11        -3.8238  -11.4710    1.0499 H         1 <0>         0.1458
     48 H12        -4.1057  -10.7183    3.5440 H         1 <0>         0.1992
     49 H13        -3.5542   -3.2194    0.9014 H         1 <0>         0.1262
     50 H14        -4.6679   -3.8537    3.0014 H         1 <0>         0.1225
     51 H15        -1.5145   -2.0226    5.2292 H         1 <0>         0.1289
     52 H16        -0.2770   -0.5388    5.0592 H         1 <0>         0.0511
     53 H17         0.7146   -2.0018    4.8482 H         1 <0>         0.0545
     54 H18         1.3286   -0.4237    4.2996 H         1 <0>         0.0960
     55 H19        -5.7339   -3.4334    4.7529 H         1 <0>         0.0534
     56 H20        -4.8440   -4.9749    4.7599 H         1 <0>         0.0550
     57 H21        -5.3951   -4.2584    6.2933 H         1 <0>         0.0946
     58 H22        -5.1870    0.7842    0.9070 H         1 <0>         0.0652
     59 H23        -5.1109    0.4483   -0.8394 H         1 <0>         0.0676
     60 H24        -6.0927   -1.9604   -0.2185 H         1 <0>         0.1167
     61 H25        -7.2586    0.1801    1.5899 H         1 <0>         0.0967
     62 H26        -7.9787   -1.4955    1.1741 H         1 <0>         0.1030
@<TRIPOS>BOND
     1    1    2 1
     2    1   38 1
     3    1   39 1
     4    1   40 1
     5    2   11 1
     6    2    3 2
     7    3    4 1
     8    3   32 1
     9    4    5 1
    10    4    6 1
    11    4   22 1
    12    6   10 1
    13    6    7 1
    14    7    8 2
    15    7   12 1
    16    8    9 1
    17    8   41 1
    18    9   10 1
    19   10   11 2
    20   12   13 2
    21   12   42 1
    22   13   14 1
    23   13   15 1
    24   15   16 1
    25   15   43 1
    26   16   17 1
    27   16   44 1
    28   16   45 1
    29   17   21 1
    30   17   18 2
    31   18   19 1
    32   18   46 1
    33   19   20 2
    34   19   47 1
    35   20   21 1
    36   20   48 1
    37   22   27 ar
    38   22   23 ar
    39   23   24 ar
    40   23   49 1
    41   24   25 ar
    42   24   50 1
    43   25   26 ar
    44   25   30 1
    45   26   27 ar
    46   26   51 1
    47   27   28 1
    48   28   29 1
    49   29   52 1
    50   29   53 1
    51   29   54 1
    52   30   31 1
    53   31   55 1
    54   31   56 1
    55   31   57 1
    56   32   33 2
    57   32   34 1
    58   34   35 1
    59   35   36 1
    60   35   58 1
    61   35   59 1
    62   36   37 2
    63   36   60 1
    64   37   61 1
    65   37   62 1
@<TRIPOS>MOLECULE
ZINC40084916
   73    75     0     0     0
SMALL
USER_CHARGES

@<TRIPOS>ATOM
      1 C1          3.2866   -0.9685    1.9454 C.3       1 <0>        -0.1156
      2 C2          2.2215   -1.1327    0.8920 C.ar      1 <0>        -0.0240
      3 C3          2.5354   -1.6979   -0.3235 C.ar      1 <0>        -0.1585
      4 C4          1.5537   -1.8495   -1.2962 C.ar      1 <0>         0.1270
      5 C5          0.2510   -1.4317   -1.0459 C.ar      1 <0>        -0.2081
      6 C6         -0.0713   -0.8657    0.1666 C.ar      1 <0>        -0.0425
      7 C7          0.9119   -0.7167    1.1499 C.ar      1 <0>        -0.1367
      8 C8          0.5694   -0.1162    2.4541 C.2       1 <0>         0.4676
      9 O1          0.4277    1.0886    2.5509 O.2       1 <0>        -0.4891
     10 C9          0.3997   -0.9715    3.6331 C.2       1 <0>        -0.4769
     11 C10         0.1770   -0.5604    4.9030 C.2       1 <0>         0.2770
     12 C11         0.0666   -1.7422    5.7837 C.2       1 <0>         0.5067
     13 O2         -0.1334   -1.7029    6.9814 O.2       1 <0>        -0.5385
     14 N1          0.2197   -2.8679    5.0629 N.am      1 <0>        -0.6027
     15 C12         0.4333   -2.4817    3.6631 C.3       1 <0>         0.2568
     16 H1          1.4036   -2.8419    3.3213 H         1 <0>         0.0636
     17 C13        -0.6636   -3.0417    2.7946 C.ar      1 <0>        -0.0423
     18 C14        -1.9835   -2.7315    3.0647 C.ar      1 <0>        -0.0453
     19 C15        -2.9933   -3.2428    2.2709 C.ar      1 <0>        -0.1812
     20 C16        -2.6835   -4.0677    1.2016 C.ar      1 <0>         0.0932
     21 C17        -1.3549   -4.3796    0.9294 C.ar      1 <0>         0.0926
     22 C18        -0.3473   -3.8599    1.7261 C.ar      1 <0>        -0.1460
     23 O3         -1.0458   -5.1888   -0.1189 O.3       1 <0>        -0.3121
     24 C19         0.3276   -5.5511   -0.2759 C.3       1 <0>         0.0315
     25 O4         -3.6756   -4.5718    0.4200 O.3       1 <0>        -0.3086
     26 C20        -5.0158   -4.2097    0.7588 C.3       1 <0>         0.0657
     27 C21        -5.9860   -4.8668   -0.2250 C.3       1 <0>        -0.0935
     28 C22        -5.9243   -6.3870   -0.0634 C.3       1 <0>        -0.1445
     29 C23        -7.4085   -4.3809    0.0601 C.3       1 <0>        -0.1460
     30 C24         0.1751   -4.2370    5.5823 C.3       1 <0>         0.1394
     31 C25        -1.2808   -4.6950    5.6885 C.3       1 <0>         0.0566
     32 O5         -1.8300   -4.8444    4.3778 O.3       1 <0>        -0.5448
     33 O6          0.0726    0.7279    5.3031 O.3       1 <0>        -0.6125
     34 O7          1.8674   -2.4062   -2.4932 O.3       1 <0>        -0.3155
     35 C26         0.8399   -2.4319   -3.4860 C.3       1 <0>         0.0633
     36 C27         1.3426   -3.1824   -4.7209 C.3       1 <0>        -0.0934
     37 C28         1.5936   -4.6479   -4.3600 C.3       1 <0>        -0.1465
     38 C29         0.2908   -3.1030   -5.8292 C.3       1 <0>        -0.1464
     39 H2          3.2610   -1.8211    2.6241 H         1 <0>         0.0753
     40 H3          4.2648   -0.9137    1.4676 H         1 <0>         0.0630
     41 H4          3.1045   -0.0519    2.5065 H         1 <0>         0.0741
     42 H5          3.5458   -2.0237   -0.5219 H         1 <0>         0.1258
     43 H6         -0.5087   -1.5512   -1.8042 H         1 <0>         0.1212
     44 H7         -1.0831   -0.5412    0.3601 H         1 <0>         0.1190
     45 H8         -2.2263   -2.0887    3.8979 H         1 <0>         0.1103
     46 H9         -4.0236   -2.9995    2.4845 H         1 <0>         0.1200
     47 H10         0.6849   -4.0974    1.5148 H         1 <0>         0.1203
     48 H11         0.6468   -6.1449    0.5806 H         1 <0>         0.0478
     49 H12         0.4471   -6.1357   -1.1881 H         1 <0>         0.0892
     50 H13         0.9363   -4.6492   -0.3399 H         1 <0>         0.0537
     51 H14        -5.2390   -4.5486    1.7705 H         1 <0>         0.0564
     52 H15        -5.1237   -3.1263    0.7066 H         1 <0>         0.0564
     53 H16        -5.7076   -4.5981   -1.2440 H         1 <0>         0.0787
     54 H17        -6.6155   -6.8552   -0.7643 H         1 <0>         0.0521
     55 H18        -4.9109   -6.7332   -0.2665 H         1 <0>         0.0642
     56 H19        -6.2027   -6.6557    0.9556 H         1 <0>         0.0518
     57 H20        -7.4524   -3.2979   -0.0550 H         1 <0>         0.0572
     58 H21        -8.0996   -4.8491   -0.6408 H         1 <0>         0.0613
     59 H22        -7.6868   -4.6496    1.0791 H         1 <0>         0.0567
     60 H23         0.7161   -4.8996    4.9068 H         1 <0>         0.0822
     61 H24         0.6382   -4.2666    6.5686 H         1 <0>         0.0865
     62 H25        -1.3239   -5.6503    6.2116 H         1 <0>         0.0460
     63 H26        -1.8561   -3.9520    6.2410 H         1 <0>         0.0470
     64 H27        -2.7528   -5.1334    4.3685 H         1 <0>         0.3647
     65 H28        -0.0390   -2.9378   -3.0862 H         1 <0>         0.0634
     66 H29         0.5769   -1.4111   -3.7633 H         1 <0>         0.0584
     67 H30         2.2713   -2.7295   -5.0682 H         1 <0>         0.0788
     68 H31         0.6650   -5.1007   -4.0127 H         1 <0>         0.0552
     69 H32         1.9517   -5.1825   -5.2398 H         1 <0>         0.0537
     70 H33         2.3429   -4.7044   -3.5705 H         1 <0>         0.0624
     71 H34         0.1120   -2.0590   -6.0863 H         1 <0>         0.0567
     72 H35         0.6489   -3.6377   -6.7089 H         1 <0>         0.0622
     73 H36        -0.6379   -3.5559   -5.4818 H         1 <0>         0.0585
@<TRIPOS>BOND
     1    1    2 1
     2    1   39 1
     3    1   40 1
     4    1   41 1
     5    2    7 ar
     6    2    3 ar
     7    3    4 ar
     8    3   42 1
     9    4    5 ar
    10    4   34 1
    11    5    6 ar
    12    5   43 1
    13    6    7 ar
    14    6   44 1
    15    7    8 1
    16    8    9 2
    17    8   10 1
    18   10   15 1
    19   10   11 2
    20   11   12 1
    21   11   33 1
    22   12   13 2
    23   12   14 am
    24   14   15 1
    25   14   30 1
    26   15   16 1
    27   15   17 1
    28   17   22 ar
    29   17   18 ar
    30   18   19 ar
    31   18   45 1
    32   19   20 ar
    33   19   46 1
    34   20   21 ar
    35   20   25 1
    36   21   22 ar
    37   21   23 1
    38   22   47 1
    39   23   24 1
    40   24   48 1
    41   24   49 1
    42   24   50 1
    43   25   26 1
    44   26   27 1
    45   26   51 1
    46   26   52 1
    47   27   28 1
    48   27   29 1
    49   27   53 1
    50   28   54 1
    51   28   55 1
    52   28   56 1
    53   29   57 1
    54   29   58 1
    55   29   59 1
    56   30   31 1
    57   30   60 1
    58   30   61 1
    59   31   32 1
    60   31   62 1
    61   31   63 1
    62   32   64 1
    63   34   35 1
    64   35   36 1
    65   35   65 1
    66   35   66 1
    67   36   37 1
    68   36   38 1
    69   36   67 1
    70   37   68 1
    71   37   69 1
    72   37   70 1
    73   38   71 1
    74   38   72 1
    75   38   73 1
@<TRIPOS>MOLECULE
ZINC40400424
   61    64     0     0     0
SMALL
USER_CHARGES

@<TRIPOS>ATOM
      1 C1          0.5458    1.3362    0.4411 C.3       1 <0>        -0.0919
      2 C2          0.3131   -0.1510    0.5137 C.2       1 <0>         0.3105
      3 C3         -0.9552   -0.6580    0.3053 C.2       1 <0>        -0.3932
      4 C4         -1.1377   -2.1571    0.3881 C.3       1 <0>         0.2630
      5 H1         -1.8810   -2.3626    1.1584 H         1 <0>         0.0759
      6 N1          0.0705   -2.9703    0.6892 N.pl3     1 <0>        -0.5111
      7 C5          0.1386   -4.3439    0.8108 C.2       1 <0>         0.2337
      8 C6          1.3430   -4.8896    1.0896 C.2       1 <0>        -0.3048
      9 S1          2.3880   -3.4494    1.1808 S.3       1 <0>         0.1299
     10 C7          1.2337   -2.2735    0.8621 C.2       1 <0>         0.3370
     11 N2          1.3256   -0.9626    0.7712 N.2       1 <0>        -0.5939
     12 C8         -1.0567   -5.1829    0.6434 C.2       1 <0>        -0.4702
     13 C9         -0.9905   -6.5058    0.8877 C.2       1 <0>         0.5016
     14 O1          0.2009   -7.0822    1.1799 O.3       1 <0>        -0.7056
     15 N3         -2.1396   -7.2769    0.8404 N.pl3     1 <0>        -0.7497
     16 C10        -2.0676   -8.7158    1.1061 C.3       1 <0>         0.1346
     17 C11        -3.4657   -9.3264    0.9906 C.3       1 <0>         0.0680
     18 H2         -4.1575   -8.7918    1.6416 H         1 <0>         0.0808
     19 C12        -3.4203  -10.8178    1.3867 C.3       1 <0>        -0.1476
     20 C13        -4.3882  -11.4619    0.3570 C.3       1 <0>        -0.1557
     21 C14        -4.1275  -10.5751   -0.8865 C.3       1 <0>         0.0492
     22 O2         -3.9185   -9.2506   -0.3662 O.3       1 <0>        -0.3727
     23 C15        -1.6978   -2.6297   -0.9287 C.ar      1 <0>        -0.0625
     24 C16        -3.0201   -3.0229   -1.0163 C.ar      1 <0>        -0.0624
     25 C17        -3.5339   -3.4565   -2.2240 C.ar      1 <0>        -0.1227
     26 C18        -2.7257   -3.4971   -3.3451 C.ar      1 <0>        -0.1103
     27 C19        -1.4036   -3.1043   -3.2588 C.ar      1 <0>        -0.1197
     28 C20        -0.8902   -2.6648   -2.0513 C.ar      1 <0>        -0.0130
     29 Cl1         0.7688   -2.1649   -1.9435 Cl        1 <0>        -0.0667
     30 C21        -2.0357    0.1879    0.0271 C.2       1 <0>         0.5363
     31 O3         -1.8830    1.3970    0.0434 O.2       1 <0>        -0.5523
     32 O4         -3.2479   -0.3363   -0.2596 O.3       1 <0>        -0.3464
     33 C22        -4.2769    0.5792   -0.6406 C.3       1 <0>         0.0726
     34 C23        -5.5973   -0.1765   -0.8029 C.3       1 <0>         0.0639
     35 O5         -6.0033   -0.7032    0.4620 O.3       1 <0>        -0.3812
     36 C24        -7.2323   -1.4312    0.4210 C.3       1 <0>         0.0313
     37 H3          1.5988    1.5486    0.6257 H         1 <0>         0.0628
     38 H4          0.2700    1.6992   -0.5490 H         1 <0>         0.0829
     39 H5         -0.0632    1.8364    1.1941 H         1 <0>         0.0877
     40 H6          1.6042   -5.9290    1.2232 H         1 <0>         0.2359
     41 H7         -1.9880   -4.7386    0.3245 H         1 <0>         0.0896
     42 H8         -2.9922   -6.8644    0.6312 H         1 <0>         0.3870
     43 H9         -1.4045   -9.1866    0.3803 H         1 <0>         0.0531
     44 H10        -1.6811   -8.8807    2.1119 H         1 <0>         0.0593
     45 H11        -2.4127  -11.2183    1.2751 H         1 <0>         0.0814
     46 H12        -3.7851  -10.9603    2.4039 H         1 <0>         0.0821
     47 H13        -4.1203  -12.5003    0.1621 H         1 <0>         0.0809
     48 H14        -5.4238  -11.3807    0.6872 H         1 <0>         0.0759
     49 H15        -3.2392  -10.9186   -1.4166 H         1 <0>         0.0588
     50 H16        -4.9931  -10.5883   -1.5488 H         1 <0>         0.0811
     51 H17        -3.6518   -2.9917   -0.1409 H         1 <0>         0.1276
     52 H18        -4.5670   -3.7639   -2.2919 H         1 <0>         0.1203
     53 H19        -3.1277   -3.8362   -4.2884 H         1 <0>         0.1229
     54 H20        -0.7724   -3.1363   -4.1345 H         1 <0>         0.1242
     55 H21        -4.3875    1.3426    0.1295 H         1 <0>         0.0698
     56 H22        -4.0106    1.0524   -1.5857 H         1 <0>         0.0731
     57 H23        -6.3624    0.5047   -1.1752 H         1 <0>         0.0640
     58 H24        -5.4633   -0.9943   -1.5109 H         1 <0>         0.0605
     59 H25        -8.0313   -0.7760    0.0741 H         1 <0>         0.0376
     60 H26        -7.1321   -2.2751   -0.2616 H         1 <0>         0.0421
     61 H27        -7.4708   -1.7979    1.4194 H         1 <0>         0.0851
@<TRIPOS>BOND
     1    1    2 1
     2    1   37 1
     3    1   38 1
     4    1   39 1
     5    2   11 1
     6    2    3 2
     7    3    4 1
     8    3   30 1
     9    4    5 1
    10    4    6 1
    11    4   23 1
    12    6   10 1
    13    6    7 1
    14    7    8 2
    15    7   12 1
    16    8    9 1
    17    8   40 1
    18    9   10 1
    19   10   11 2
    20   12   13 2
    21   12   41 1
    22   13   14 1
    23   13   15 1
    24   15   16 1
    25   15   42 1
    26   16   17 1
    27   16   43 1
    28   16   44 1
    29   17   18 1
    30   17   22 1
    31   17   19 1
    32   19   20 1
    33   19   45 1
    34   19   46 1
    35   20   21 1
    36   20   47 1
    37   20   48 1
    38   21   22 1
    39   21   49 1
    40   21   50 1
    41   23   28 ar
    42   23   24 ar
    43   24   25 ar
    44   24   51 1
    45   25   26 ar
    46   25   52 1
    47   26   27 ar
    48   26   53 1
    49   27   28 ar
    50   27   54 1
    51   28   29 1
    52   30   31 2
    53   30   32 1
    54   32   33 1
    55   33   34 1
    56   33   55 1
    57   33   56 1
    58   34   35 1
    59   34   57 1
    60   34   58 1
    61   35   36 1
    62   36   59 1
    63   36   60 1
    64   36   61 1
@<TRIPOS>MOLECULE
ZINC09111037
   69    72     0     0     0
SMALL
USER_CHARGES
(5R)-4-(3-fluoro-4-isopropoxy-benzoyl)-3-hydroxy-5-(2-methoxyphenyl)-1-(3-morpholinopropyl)-5H-pyrrol-2-one
@<TRIPOS>ATOM
      1 C1         -9.9001   -0.3126   -2.6147 C.3       1 <0>        -0.1831
      2 C2         -8.7227   -1.0909   -2.0240 C.3       1 <0>         0.0736
      3 C3         -9.1606   -2.5250   -1.7199 C.3       1 <0>        -0.1480
      4 O1         -7.6457   -1.1107   -2.9631 O.3       1 <0>        -0.3087
      5 C4         -6.8241   -0.0303   -2.9814 C.ar      1 <0>         0.1155
      6 C5         -7.0750    1.0457   -2.1382 C.ar      1 <0>        -0.2033
      7 C6         -6.2411    2.1412   -2.1492 C.ar      1 <0>        -0.0285
      8 C7         -5.1458    2.1760   -3.0176 C.ar      1 <0>        -0.1476
      9 C8         -4.8954    1.0923   -3.8649 C.ar      1 <0>        -0.0696
     10 C9         -5.7318   -0.0032   -3.8443 C.ar      1 <0>         0.0487
     11 F1         -5.4919   -1.0511   -4.6625 F         1 <0>        -0.1367
     12 C10        -4.2528    3.3511   -3.0355 C.2       1 <0>         0.5102
     13 O2         -3.3587    3.4235   -3.8580 O.2       1 <0>        -0.4735
     14 C11        -4.4429    4.4314   -2.0623 C.2       1 <0>        -0.5095
     15 C12        -4.8187    5.7033   -2.3314 C.2       1 <0>         0.2676
     16 C13        -4.8910    6.4660   -1.0676 C.2       1 <0>         0.5107
     17 O3         -5.2008    7.6373   -0.9769 O.2       1 <0>        -0.5358
     18 N1         -4.5636    5.6710   -0.0311 N.am      1 <0>        -0.6051
     19 C14        -4.2569    4.3391   -0.5658 C.3       1 <0>         0.2741
     20 H1         -4.9209    3.5895   -0.1105 H         1 <0>         0.0705
     21 C15        -2.8329    3.9663   -0.2426 C.ar      1 <0>        -0.1144
     22 C16        -1.8377    4.1588   -1.1815 C.ar      1 <0>        -0.0461
     23 C17        -0.5314    3.8166   -0.8858 C.ar      1 <0>        -0.1602
     24 C18        -0.2171    3.2814    0.3500 C.ar      1 <0>        -0.0870
     25 C19        -1.2083    3.0874    1.2921 C.ar      1 <0>        -0.2197
     26 C20        -2.5212    3.4247    0.9957 C.ar      1 <0>         0.1301
     27 O4         -3.4991    3.2295    1.9190 O.3       1 <0>        -0.3118
     28 C21        -3.0908    2.7713    3.2095 C.3       1 <0>         0.0263
     29 C22        -4.5208    6.0646    1.3794 C.3       1 <0>         0.1391
     30 C23        -3.1654    6.7028    1.6899 C.3       1 <0>        -0.1335
     31 C24        -3.1663    7.2282    3.1269 C.3       1 <0>         0.0623
     32 N2         -1.8649    7.8410    3.4250 N.3       1 <0>        -0.5340
     33 C25        -0.7960    6.8317    3.4293 C.3       1 <0>         0.0170
     34 C26         0.5475    7.5201    3.6842 C.3       1 <0>         0.0620
     35 O5          0.4807    8.2433    4.9162 O.3       1 <0>        -0.3881
     36 C27        -0.5492    9.2352    4.9465 C.3       1 <0>         0.0621
     37 C28        -1.9038    8.5641    4.7044 C.3       1 <0>         0.0174
     38 O6         -5.0853    6.1982   -3.5622 O.3       1 <0>        -0.6523
     39 H2         -9.5853    0.7185   -2.8333 H         1 <0>         0.0679
     40 H3        -10.7291   -0.2974   -1.8919 H         1 <0>         0.0731
     41 H4        -10.2323   -0.7993   -3.5435 H         1 <0>         0.0685
     42 H5         -8.3278   -0.5953   -1.1249 H         1 <0>         0.0776
     43 H6         -8.3141   -3.0846   -1.2952 H         1 <0>         0.0652
     44 H7         -9.4928   -3.0117   -2.6488 H         1 <0>         0.0678
     45 H8         -9.9897   -2.5097   -0.9971 H         1 <0>         0.0778
     46 H9         -7.9231    1.0205   -1.4700 H         1 <0>         0.1400
     47 H10        -6.4352    2.9748   -1.4904 H         1 <0>         0.1445
     48 H11        -4.0479    1.1134   -4.5340 H         1 <0>         0.1489
     49 H12        -2.0806    4.5766   -2.1473 H         1 <0>         0.1467
     50 H13         0.2451    3.9678   -1.6210 H         1 <0>         0.1192
     51 H14         0.8043    3.0152    0.5787 H         1 <0>         0.1165
     52 H15        -0.9623    2.6694    2.2571 H         1 <0>         0.1196
     53 H16        -3.9746    2.6560    3.8542 H         1 <0>         0.0961
     54 H17        -2.4029    3.5033    3.6578 H         1 <0>         0.0497
     55 H18        -2.5806    1.8019    3.1099 H         1 <0>         0.0525
     56 H19        -5.3226    6.7898    1.5822 H         1 <0>         0.0710
     57 H20        -4.6614    5.1761    2.0125 H         1 <0>         0.0832
     58 H21        -2.3710    5.9506    1.5750 H         1 <0>         0.0673
     59 H22        -2.9846    7.5361    0.9949 H         1 <0>         0.0747
     60 H23        -3.9607    7.9803    3.2418 H         1 <0>         0.0769
     61 H24        -3.3470    6.3949    3.8219 H         1 <0>         0.0326
     62 H25        -0.9897    6.0959    4.2237 H         1 <0>         0.0382
     63 H26        -0.7697    6.3213    2.4552 H         1 <0>         0.0919
     64 H27         1.3423    6.7620    3.7444 H         1 <0>         0.0974
     65 H28         0.7655    8.2153    2.8601 H         1 <0>         0.0611
     66 H29        -0.5532    9.7297    5.9291 H         1 <0>         0.0967
     67 H30        -0.3622    9.9821    4.1609 H         1 <0>         0.0604
     68 H31        -2.6932    9.3293    4.6692 H         1 <0>         0.0864
     69 H32        -2.1154    7.8563    5.5194 H         1 <0>         0.0398
@<TRIPOS>BOND
     1    1    2 1
     2    1   39 1
     3    1   40 1
     4    1   41 1
     5    2    3 1
     6    2    4 1
     7    2   42 1
     8    3   43 1
     9    3   44 1
    10    3   45 1
    11    4    5 1
    12    5   10 ar
    13    5    6 ar
    14    6    7 ar
    15    6   46 1
    16    7    8 ar
    17    7   47 1
    18    8    9 ar
    19    8   12 1
    20    9   10 ar
    21    9   48 1
    22   10   11 1
    23   12   13 2
    24   12   14 1
    25   14   19 1
    26   14   15 2
    27   15   16 1
    28   15   38 1
    29   16   17 2
    30   16   18 am
    31   18   19 1
    32   18   29 1
    33   19   20 1
    34   19   21 1
    35   21   26 ar
    36   21   22 ar
    37   22   23 ar
    38   22   49 1
    39   23   24 ar
    40   23   50 1
    41   24   25 ar
    42   24   51 1
    43   25   26 ar
    44   25   52 1
    45   26   27 1
    46   27   28 1
    47   28   53 1
    48   28   54 1
    49   28   55 1
    50   29   30 1
    51   29   56 1
    52   29   57 1
    53   30   31 1
    54   30   58 1
    55   30   59 1
    56   31   32 1
    57   31   60 1
    58   31   61 1
    59   32   37 1
    60   32   33 1
    61   33   34 1
    62   33   62 1
    63   33   63 1
    64   34   35 1
    65   34   64 1
    66   34   65 1
    67   35   36 1
    68   36   37 1
    69   36   66 1
    70   36   67 1
    71   37   68 1
    72   37   69 1
@<TRIPOS>MOLECULE
ZINC09144854
   63    66     0     0     0
SMALL
USER_CHARGES
[2-[(1R)-1-(2,6-dioxocyclohexyl)-6,7-dimethoxy-3,4-dihydro-1H-isoquinolin-2-yl]-2-oxo-ethyl] morpholine-4-carbodithioate
@<TRIPOS>ATOM
      1 C1         11.4022   -4.8636    7.4239 C.3       1 <0>         0.0266
      2 O1         12.0855   -3.7502    6.8447 O.3       1 <0>        -0.3116
      3 C2         11.4673   -3.1148    5.8135 C.ar      1 <0>         0.0814
      4 C3         10.2331   -3.5509    5.3686 C.ar      1 <0>        -0.1720
      5 C4          9.5924   -2.9080    4.3160 C.ar      1 <0>        -0.0762
      6 C5         10.1972   -1.8313    3.7060 C.ar      1 <0>        -0.0273
      7 C6         11.4353   -1.3875    4.1511 C.ar      1 <0>        -0.1555
      8 C7         12.0735   -2.0221    5.2011 C.ar      1 <0>         0.1010
      9 O2         13.2858   -1.5815    5.6320 O.3       1 <0>        -0.3106
     10 C8         13.8449   -0.4546    4.9541 C.3       1 <0>         0.0230
     11 C9          9.5632   -1.0978    2.5505 C.3       1 <0>         0.2769
     12 H1          9.5521   -0.0176    2.7580 H         1 <0>         0.0395
     13 N1          8.1701   -1.5299    2.3953 N.am      1 <0>        -0.5706
     14 C10         7.8963   -2.9736    2.4877 C.3       1 <0>         0.1037
     15 C11         8.2439   -3.4327    3.8975 C.3       1 <0>        -0.0831
     16 C12         7.1799   -0.6408    2.1822 C.2       1 <0>         0.5288
     17 O3          7.4324    0.5436    2.1154 O.2       1 <0>        -0.5479
     18 C13         5.7590   -1.1183    2.0271 C.3       1 <0>        -0.1405
     19 S1          4.6713    0.3027    1.7549 S.3       1 <0>         0.0538
     20 C14         3.1208   -0.5219    1.6117 C.2       1 <0>         0.2831
     21 S2          3.0421   -2.2267    1.7472 S.2       1 <0>        -0.5792
     22 N2          1.9967    0.1895    1.3954 N.pl3     1 <0>        -0.5173
     23 C15         0.6905   -0.4769    1.2723 C.3       1 <0>         0.0502
     24 C16         0.0074    0.0301   -0.0030 C.3       1 <0>         0.0482
     25 O4         -0.0076    1.4596    0.0075 O.3       1 <0>        -0.3760
     26 C17         1.2905    2.0586    0.0005 C.3       1 <0>         0.0489
     27 C18         2.0393    1.6555    1.2759 C.3       1 <0>         0.0504
     28 C19        10.3375   -1.4052    1.2672 C.2       1 <0>        -0.6275
     29 C20        11.7264   -0.8047    1.3474 C.2       1 <0>         0.4051
     30 O5         12.6970   -1.5045    1.5103 O.3       1 <0>        -0.4931
     31 C21        11.8625    0.6958    1.2176 C.3       1 <0>        -0.2045
     32 C22        11.1958    1.1466   -0.0850 C.3       1 <0>        -0.0873
     33 C23         9.7232    0.7273   -0.0808 C.3       1 <0>        -0.2054
     34 C24         9.6385   -0.7739    0.0802 C.2       1 <0>         0.4127
     35 O6          9.0314   -1.4504   -0.7149 O.2       1 <0>        -0.5031
     36 H2         12.0087   -5.2814    8.2410 H         1 <0>         0.0941
     37 H3         11.2406   -5.6345    6.6560 H         1 <0>         0.0531
     38 H4         10.4313   -4.5320    7.8206 H         1 <0>         0.0501
     39 H5          9.7623   -4.3988    5.8436 H         1 <0>         0.1276
     40 H6         11.9038   -0.5398    3.6733 H         1 <0>         0.1257
     41 H7         14.8192   -0.2050    5.3996 H         1 <0>         0.0950
     42 H8         13.1661    0.4055    5.0513 H         1 <0>         0.0479
     43 H9         13.9797   -0.6969    3.8896 H         1 <0>         0.0635
     44 H10         6.8320   -3.1589    2.2807 H         1 <0>         0.0792
     45 H11         8.5120   -3.5114    1.7517 H         1 <0>         0.1038
     46 H12         8.2557   -4.5324    3.9186 H         1 <0>         0.0831
     47 H13         7.4746   -3.0610    4.5903 H         1 <0>         0.0681
     48 H14         5.6933   -1.8005    1.1667 H         1 <0>         0.1379
     49 H15         5.4486   -1.6482    2.9397 H         1 <0>         0.1339
     50 H16         0.8383   -1.5653    1.2130 H         1 <0>         0.1378
     51 H17         0.0728   -0.2381    2.1506 H         1 <0>         0.0931
     52 H18         0.5628   -0.3266   -0.8830 H         1 <0>         0.0636
     53 H19        -1.0243   -0.3494   -0.0420 H         1 <0>         0.1177
     54 H20         1.8497    1.7115   -0.8809 H         1 <0>         0.0654
     55 H21         1.1890    3.1533   -0.0373 H         1 <0>         0.1189
     56 H22         1.5575    2.1091    2.1546 H         1 <0>         0.1008
     57 H23         3.0861    1.9885    1.2190 H         1 <0>         0.1077
     58 H24        11.3725    1.1838    2.0730 H         1 <0>         0.0746
     59 H25        12.9283    0.9673    1.2018 H         1 <0>         0.0592
     60 H26        11.2638    2.2410   -0.1720 H         1 <0>         0.0540
     61 H27        11.7065    0.6785   -0.9394 H         1 <0>         0.0536
     62 H28         9.2042    1.2196    0.7548 H         1 <0>         0.0929
     63 H29         9.2544    1.0253   -1.0302 H         1 <0>         0.0532
@<TRIPOS>BOND
     1    1    2 1
     2    1   36 1
     3    1   37 1
     4    1   38 1
     5    2    3 1
     6    3    8 ar
     7    3    4 ar
     8    4    5 ar
     9    4   39 1
    10    5   15 1
    11    5    6 ar
    12    6    7 ar
    13    6   11 1
    14    7    8 ar
    15    7   40 1
    16    8    9 1
    17    9   10 1
    18   10   41 1
    19   10   42 1
    20   10   43 1
    21   11   12 1
    22   11   13 1
    23   11   28 1
    24   13   14 1
    25   13   16 am
    26   14   15 1
    27   14   44 1
    28   14   45 1
    29   15   46 1
    30   15   47 1
    31   16   17 2
    32   16   18 1
    33   18   19 1
    34   18   48 1
    35   18   49 1
    36   19   20 1
    37   20   21 2
    38   20   22 1
    39   22   27 1
    40   22   23 1
    41   23   24 1
    42   23   50 1
    43   23   51 1
    44   24   25 1
    45   24   52 1
    46   24   53 1
    47   25   26 1
    48   26   27 1
    49   26   54 1
    50   26   55 1
    51   27   56 1
    52   27   57 1
    53   28   34 1
    54   28   29 2
    55   29   30 1
    56   29   31 1
    57   31   32 1
    58   31   58 1
    59   31   59 1
    60   32   33 1
    61   32   60 1
    62   32   61 1
    63   33   34 1
    64   33   62 1
    65   33   63 1
    66   34   35 2
@<TRIPOS>MOLECULE
ZINC16730187
   58    61     0     0     0
SMALL
USER_CHARGES
ethyl 2-[(2R,3Z)-3-[(3-fluoro-4-methyl-phenyl)-hydroxy-methylene]-2-(3-methoxyphenyl)-4,5-dioxo-pyrrolidin-1-yl]-4-methyl-thiazole-5-carboxylate
@<TRIPOS>ATOM
      1 C1         -0.4356    6.9614   -1.1578 C.3       1 <0>        -0.1542
      2 C2         -1.1376    5.6104   -1.0063 C.3       1 <0>         0.0615
      3 O1         -0.1591    4.5766   -0.8811 O.3       1 <0>        -0.3489
      4 C3         -0.6157    3.3149   -0.7383 C.2       1 <0>         0.5703
      5 O2         -1.8130    3.0997   -0.7208 O.2       1 <0>        -0.5038
      6 C4          0.3279    2.2069   -0.6049 C.2       1 <0>        -0.3256
      7 C5          0.0851    0.8482   -0.4497 C.2       1 <0>         0.2123
      8 N1          1.1174    0.0522   -0.3568 N.2       1 <0>        -0.5476
      9 C6          2.3573    0.5146   -0.4079 C.2       1 <0>         0.3668
     10 S1          2.1152    2.2228   -0.6039 S.3       1 <0>         0.1451
     11 N2          3.5456   -0.1864   -0.3261 N.am      1 <0>        -0.4952
     12 C7          4.8868    0.4007   -0.3971 C.3       1 <0>         0.2542
     13 H1          5.0087    1.1445    0.4040 H         1 <0>         0.0873
     14 C8          5.8668   -0.7416   -0.2605 C.2       1 <0>        -0.4914
     15 C9          7.2435   -0.6576   -0.2645 C.2       1 <0>         0.3953
     16 C10         7.9012    0.6611   -0.2704 C.ar      1 <0>        -0.0488
     17 C11         8.9326    0.9279   -1.1768 C.ar      1 <0>        -0.0884
     18 C12         9.5399    2.1655   -1.1812 C.ar      1 <0>        -0.0968
     19 C13         9.1399    3.1405   -0.2840 C.ar      1 <0>        -0.1159
     20 C14         8.1226    2.8830    0.6216 C.ar      1 <0>         0.0900
     21 C15         7.5011    1.6495    0.6336 C.ar      1 <0>        -0.1335
     22 F1          7.7378    3.8404    1.4937 F         1 <0>        -0.1420
     23 C16         9.8140    4.4883   -0.2913 C.3       1 <0>        -0.1137
     24 O3          7.9886   -1.7834   -0.2630 O.2       1 <0>        -0.5935
     25 C17         5.0924   -1.9065   -0.1286 C.2       1 <0>         0.3890
     26 O4          5.5213   -3.0383    0.0041 O.3       1 <0>        -0.4572
     27 C18         3.6578   -1.5172   -0.1792 C.2       1 <0>         0.4761
     28 O5          2.7243   -2.2887   -0.0935 O.2       1 <0>        -0.4532
     29 C19         5.0778    1.0923   -1.7223 C.ar      1 <0>        -0.0554
     30 C20         4.7197    0.4514   -2.8942 C.ar      1 <0>        -0.1277
     31 C21         4.8936    1.0832   -4.1113 C.ar      1 <0>        -0.0800
     32 C22         5.4261    2.3572   -4.1598 C.ar      1 <0>        -0.2059
     33 C23         5.7857    3.0025   -2.9857 C.ar      1 <0>         0.1290
     34 C24         5.6052    2.3682   -1.7650 C.ar      1 <0>        -0.1279
     35 O6          6.3100    4.2555   -3.0309 O.3       1 <0>        -0.3131
     36 C25         6.4632    4.8486   -4.3219 C.3       1 <0>         0.0259
     37 C26        -1.3213    0.3101   -0.3898 C.3       1 <0>        -0.0878
     38 H2         -1.1889    7.7573   -1.2542 H         1 <0>         0.0794
     39 H3          0.1988    6.9463   -2.0563 H         1 <0>         0.0674
     40 H4          0.1879    7.1521   -0.2719 H         1 <0>         0.0680
     41 H5         -1.7720    5.6256   -0.1078 H         1 <0>         0.0687
     42 H6         -1.7612    5.4197   -1.8922 H         1 <0>         0.0683
     43 H7          9.2497    0.1671   -1.8746 H         1 <0>         0.1300
     44 H8         10.3331    2.3735   -1.8841 H         1 <0>         0.1276
     45 H9          6.7082    1.4493    1.3391 H         1 <0>         0.1367
     46 H10         9.3663    5.1264    0.4849 H         1 <0>         0.0674
     47 H11         9.6800    4.9599   -1.2760 H         1 <0>         0.0716
     48 H12        10.8877    4.3623   -0.0881 H         1 <0>         0.0694
     49 H13         4.3037   -0.5446   -2.8583 H         1 <0>         0.1164
     50 H14         4.6135    0.5803   -5.0251 H         1 <0>         0.1224
     51 H15         5.5625    2.8501   -5.1110 H         1 <0>         0.1243
     52 H16         5.8806    2.8701   -0.8492 H         1 <0>         0.1290
     53 H17         6.8949    5.8546   -4.2143 H         1 <0>         0.0974
     54 H18         5.4805    4.9216   -4.8108 H         1 <0>         0.0531
     55 H19         7.1321    4.2261   -4.9343 H         1 <0>         0.0538
     56 H20        -1.2909   -0.7823   -0.2648 H         1 <0>         0.0805
     57 H21        -1.8487    0.5579   -1.3228 H         1 <0>         0.0866
     58 H22        -1.8508    0.7621    0.4619 H         1 <0>         0.0867
@<TRIPOS>BOND
     1    1    2 1
     2    1   38 1
     3    1   39 1
     4    1   40 1
     5    2    3 1
     6    2   41 1
     7    2   42 1
     8    3    4 1
     9    4    5 2
    10    4    6 1
    11    6   10 1
    12    6    7 2
    13    7    8 1
    14    7   37 1
    15    8    9 2
    16    9   10 1
    17    9   11 1
    18   11   27 am
    19   11   12 1
    20   12   14 1
    21   12   29 1
    22   12   13 1
    23   14   25 2
    24   14   15 1
    25   15   24 2
    26   15   16 1
    27   16   21 ar
    28   16   17 ar
    29   17   18 ar
    30   17   43 1
    31   18   19 ar
    32   18   44 1
    33   19   20 ar
    34   19   23 1
    35   20   21 ar
    36   20   22 1
    37   21   45 1
    38   23   46 1
    39   23   47 1
    40   23   48 1
    41   25   27 1
    42   25   26 1
    43   27   28 2
    44   29   34 ar
    45   29   30 ar
    46   30   31 ar
    47   30   49 1
    48   31   32 ar
    49   31   50 1
    50   32   33 ar
    51   32   51 1
    52   33   34 ar
    53   33   35 1
    54   34   52 1
    55   35   36 1
    56   36   53 1
    57   36   54 1
    58   36   55 1
    59   37   56 1
    60   37   57 1
    61   37   58 1
@<TRIPOS>MOLECULE
ZINC38625368
   58    61     0     0     0
SMALL
USER_CHARGES

@<TRIPOS>ATOM
      1 C1          0.6596    1.5891    0.1327 C.3       1 <0>        -0.0896
      2 C2          1.6460    0.5837    0.6687 C.2       1 <0>        -0.1078
      3 C3          3.0055    0.3431    0.1873 C.ar      1 <0>        -0.1274
      4 C4          3.7907    0.8950   -0.8282 C.ar      1 <0>        -0.0517
      5 C5          5.0623    0.4340   -1.0275 C.ar      1 <0>        -0.0563
      6 C6          5.5768   -0.5787   -0.2275 C.ar      1 <0>        -0.0833
      7 C7          4.8178   -1.1355    0.7790 C.ar      1 <0>        -0.0926
      8 C8          3.5224   -0.6827    1.0006 C.ar      1 <0>         0.0716
      9 O1          2.5643   -1.0239    1.8847 O.3       1 <0>        -0.1579
     10 C9          1.4542   -0.2791    1.7015 C.2       1 <0>        -0.0146
     11 C10         0.2230   -0.3866    2.4963 C.2       1 <0>         0.5287
     12 O2         -0.6887    0.4005    2.3162 O.2       1 <0>        -0.4261
     13 C11         0.0916   -1.4452    3.5098 C.2       1 <0>        -0.4098
     14 C12         0.0461   -2.7923    3.1149 C.2       1 <0>         0.1488
     15 C13        -0.0785   -3.7751    4.0918 C.2       1 <0>        -0.3071
     16 C14        -0.1576   -3.3682    5.4954 C.2       1 <0>         0.5721
     17 O3         -0.2666   -4.2094    6.3699 O.2       1 <0>        -0.5611
     18 N1         -0.1091   -2.0619    5.8178 N.am      1 <0>        -0.5242
     19 C15         0.0179   -1.1093    4.8636 C.2       1 <0>         0.5287
     20 O4          0.0684    0.1865    5.2264 O.3       1 <0>        -0.6397
     21 C16        -0.1891   -1.6645    7.2255 C.3       1 <0>         0.1142
     22 C17         1.2197   -1.6050    7.8195 C.3       1 <0>        -0.0890
     23 C18         1.1375   -1.1962    9.2676 C.ar      1 <0>        -0.0655
     24 C19         1.1805    0.1426    9.6099 C.ar      1 <0>        -0.1070
     25 C20         1.1054    0.5227   10.9369 C.ar      1 <0>        -0.1706
     26 C21         0.9863   -0.4389   11.9273 C.ar      1 <0>         0.0890
     27 C22         0.9425   -1.7864   11.5829 C.ar      1 <0>         0.0978
     28 C23         1.0134   -2.1604   10.2505 C.ar      1 <0>        -0.1643
     29 O5          0.8257   -2.7340   12.5513 O.3       1 <0>        -0.3099
     30 C24         0.7871   -4.0971   12.1241 C.3       1 <0>         0.0255
     31 O6          0.9128   -0.0667   13.2333 O.3       1 <0>        -0.3099
     32 C25         0.9643    1.3338   13.5126 C.3       1 <0>         0.0273
     33 C26        -0.1289   -5.1598    3.7304 C.1       1 <0>         0.3148
     34 N2         -0.1689   -6.2583    3.4437 N.1       1 <0>        -0.4924
     35 C27         0.1304   -3.1669    1.6576 C.3       1 <0>        -0.1300
     36 Cl1         6.0400    1.1180   -2.2885 Cl        1 <0>        -0.0700
     37 H1          0.7830    2.5355    0.6591 H         1 <0>         0.0778
     38 H2          0.8368    1.7398   -0.9322 H         1 <0>         0.0665
     39 H3         -0.3545    1.2190    0.2834 H         1 <0>         0.0878
     40 H4          3.3948    1.6820   -1.4531 H         1 <0>         0.1381
     41 H5          6.5827   -0.9338   -0.3965 H         1 <0>         0.1448
     42 H6          5.2285   -1.9224    1.3941 H         1 <0>         0.1451
     43 H7         -0.6565   -0.6826    7.2999 H         1 <0>         0.0950
     44 H8         -0.7848   -2.3930    7.7755 H         1 <0>         0.0869
     45 H9          1.6871   -2.5869    7.7451 H         1 <0>         0.0752
     46 H10         1.8154   -0.8765    7.2695 H         1 <0>         0.0817
     47 H11         1.2733    0.8931    8.8388 H         1 <0>         0.1317
     48 H12         1.1399    1.5692   11.2016 H         1 <0>         0.1334
     49 H13         0.9759   -3.2054    9.9802 H         1 <0>         0.1377
     50 H14         0.6924   -4.7478   12.9934 H         1 <0>         0.0977
     51 H15        -0.0669   -4.2467   11.4634 H         1 <0>         0.0572
     52 H16         1.7063   -4.3365   11.5895 H         1 <0>         0.0548
     53 H17         1.9046    1.7435   13.1437 H         1 <0>         0.0530
     54 H18         0.1314    1.8338   13.0182 H         1 <0>         0.0538
     55 H19         0.8962    1.4924   14.5888 H         1 <0>         0.0967
     56 H20         1.1734   -3.3236    1.3825 H         1 <0>         0.0837
     57 H21        -0.4326   -4.0842    1.4851 H         1 <0>         0.0730
     58 H22        -0.2886   -2.3639    1.0512 H         1 <0>         0.0675
@<TRIPOS>BOND
     1    1    2 1
     2    1   37 1
     3    1   38 1
     4    1   39 1
     5    2   10 2
     6    2    3 1
     7    3    8 ar
     8    3    4 ar
     9    4    5 ar
    10    4   40 1
    11    5    6 ar
    12    5   36 1
    13    6    7 ar
    14    6   41 1
    15    7    8 ar
    16    7   42 1
    17    8    9 1
    18    9   10 1
    19   10   11 1
    20   11   12 2
    21   11   13 1
    22   13   19 2
    23   13   14 1
    24   14   15 2
    25   14   35 1
    26   15   16 1
    27   15   33 1
    28   16   17 2
    29   16   18 am
    30   18   19 1
    31   18   21 1
    32   19   20 1
    33   21   22 1
    34   21   43 1
    35   21   44 1
    36   22   23 1
    37   22   45 1
    38   22   46 1
    39   23   28 ar
    40   23   24 ar
    41   24   25 ar
    42   24   47 1
    43   25   26 ar
    44   25   48 1
    45   26   27 ar
    46   26   31 1
    47   27   28 ar
    48   27   29 1
    49   28   49 1
    50   29   30 1
    51   30   50 1
    52   30   51 1
    53   30   52 1
    54   31   32 1
    55   32   53 1
    56   32   54 1
    57   32   55 1
    58   33   34 3
    59   35   56 1
    60   35   57 1
    61   35   58 1
@<TRIPOS>MOLECULE
ZINC40003668
   71    74     0     0     0
SMALL
USER_CHARGES

@<TRIPOS>ATOM
      1 C1         -3.4364   -5.8467   -1.6897 C.3       1 <0>        -0.0992
      2 C2         -2.1104   -5.4348   -1.1041 C.2       1 <0>        -0.0586
      3 C3         -1.0523   -5.1622   -1.9205 C.2       1 <0>        -0.1033
      4 C4          0.1739   -4.7807   -1.3604 C.2       1 <0>        -0.1552
      5 C5          0.3058   -4.6837   -0.0170 C.2       1 <0>         0.0752
      6 N1         -0.7440   -4.9541    0.8033 N.pl3     1 <0>        -0.3282
      7 C6         -1.9543   -5.3225    0.2881 C.2       1 <0>         0.2343
      8 N2         -2.8043   -5.5202    1.2961 N.2       1 <0>        -0.5036
      9 C7         -2.1972   -5.2894    2.4471 C.2       1 <0>         0.1632
     10 C8         -0.8808   -4.9353    2.1795 C.2       1 <0>        -0.1375
     11 C9          0.1187   -4.6040    3.1276 C.2       1 <0>         0.5464
     12 O1          1.2062   -4.2002    2.7513 O.2       1 <0>        -0.5007
     13 C10        -0.1548   -4.7469    4.5631 C.2       1 <0>        -0.4916
     14 C11        -0.1721   -5.8994    5.2700 C.2       1 <0>         0.2627
     15 C12        -0.4876   -5.6004    6.6799 C.2       1 <0>         0.5128
     16 O2         -0.5758   -6.4283    7.5652 O.2       1 <0>        -0.5328
     17 N3         -0.6632   -4.2763    6.8412 N.am      1 <0>        -0.6105
     18 C13        -0.4649   -3.6337    5.5366 C.3       1 <0>         0.2640
     19 H1         -1.3742   -3.1140    5.2347 H         1 <0>         0.0735
     20 C14         0.6886   -2.6661    5.6022 C.ar      1 <0>        -0.0289
     21 C15         1.8779   -3.0481    6.1956 C.ar      1 <0>        -0.1147
     22 C16         2.9379   -2.1628    6.2573 C.ar      1 <0>        -0.0826
     23 C17         2.8113   -0.8936    5.7264 C.ar      1 <0>        -0.2133
     24 C18         1.6195   -0.5080    5.1306 C.ar      1 <0>         0.1237
     25 C19         0.5591   -1.4004    5.0645 C.ar      1 <0>        -0.1445
     26 O3          1.4925    0.7399    4.6076 O.3       1 <0>        -0.3191
     27 C20         2.6269    1.6032    4.7062 C.3       1 <0>         0.0599
     28 C21         2.2970    2.9539    4.0676 C.3       1 <0>        -0.1143
     29 C22         3.5117    3.8782    4.1732 C.3       1 <0>        -0.0934
     30 C23         4.6612    3.3069    3.3407 C.3       1 <0>        -0.1537
     31 C24         3.1428    5.2671    3.6480 C.3       1 <0>        -0.1462
     32 C25        -0.9889   -3.5961    8.0972 C.3       1 <0>         0.1426
     33 C26         0.3041   -3.2066    8.8165 C.3       1 <0>        -0.1457
     34 C27        -0.0361   -2.4962   10.1282 C.3       1 <0>         0.0670
     35 O4          1.1715   -2.1325   10.8000 O.3       1 <0>        -0.3895
     36 C28         0.9648   -1.4591   12.0433 C.3       1 <0>         0.0324
     37 O5          0.0624   -7.1336    4.7636 O.3       1 <0>        -0.6573
     38 C29        -2.8211   -5.4040    3.8141 C.3       1 <0>        -0.0819
     39 H2         -4.0414   -4.9598   -1.8785 H         1 <0>         0.0729
     40 H3         -3.2704   -6.3792   -2.6262 H         1 <0>         0.0687
     41 H4         -3.9567   -6.4988   -0.9882 H         1 <0>         0.0776
     42 H5         -1.1590   -5.2405   -2.9924 H         1 <0>         0.1398
     43 H6          1.0154   -4.5639   -2.0018 H         1 <0>         0.1497
     44 H7          1.2541   -4.3889    0.4074 H         1 <0>         0.1718
     45 H8          1.9786   -4.0396    6.6118 H         1 <0>         0.1175
     46 H9          3.8657   -2.4635    6.7213 H         1 <0>         0.1184
     47 H10         3.6395   -0.2021    5.7755 H         1 <0>         0.1183
     48 H11        -0.3683   -1.1042    4.5969 H         1 <0>         0.1232
     49 H12         2.8816    1.7501    5.7558 H         1 <0>         0.0576
     50 H13         3.4726    1.1526    4.1867 H         1 <0>         0.0613
     51 H14         2.0423    2.8070    3.0180 H         1 <0>         0.0733
     52 H15         1.4513    3.4045    4.5871 H         1 <0>         0.0725
     53 H16         3.8208    3.9542    5.2156 H         1 <0>         0.0718
     54 H17         5.5265    3.9654    3.4159 H         1 <0>         0.0553
     55 H18         4.9240    2.3174    3.7148 H         1 <0>         0.0571
     56 H19         4.3520    3.2308    2.2982 H         1 <0>         0.0570
     57 H20         2.3238    5.6741    4.2411 H         1 <0>         0.0554
     58 H21         4.0081    5.9256    3.7232 H         1 <0>         0.0557
     59 H22         2.8336    5.1910    2.6055 H         1 <0>         0.0559
     60 H23        -1.5706   -2.6992    7.8844 H         1 <0>         0.0763
     61 H24        -1.5707   -4.2643    8.7320 H         1 <0>         0.0805
     62 H25         0.8858   -4.1035    9.0293 H         1 <0>         0.0743
     63 H26         0.8859   -2.5383    8.1816 H         1 <0>         0.0847
     64 H27        -0.6178   -1.5993    9.9153 H         1 <0>         0.0480
     65 H28        -0.6179   -3.1645   10.7630 H         1 <0>         0.0487
     66 H29         0.4039   -0.5407   11.8702 H         1 <0>         0.0386
     67 H30         0.4038   -2.1058   12.7179 H         1 <0>         0.0393
     68 H31         1.9291   -1.2171   12.4902 H         1 <0>         0.0827
     69 H32        -2.7173   -6.4268    4.1763 H         1 <0>         0.0845
     70 H33        -2.3191   -4.7226    4.5009 H         1 <0>         0.0950
     71 H34        -3.8783   -5.1455    3.7537 H         1 <0>         0.0652
@<TRIPOS>BOND
     1    1    2 1
     2    1   39 1
     3    1   40 1
     4    1   41 1
     5    2    7 1
     6    2    3 2
     7    3    4 1
     8    3   42 1
     9    4    5 2
    10    4   43 1
    11    5    6 1
    12    5   44 1
    13    6   10 1
    14    6    7 1
    15    7    8 2
    16    8    9 1
    17    9   10 2
    18    9   38 1
    19   10   11 1
    20   11   12 2
    21   11   13 1
    22   13   18 1
    23   13   14 2
    24   14   15 1
    25   14   37 1
    26   15   16 2
    27   15   17 am
    28   17   18 1
    29   17   32 1
    30   18   19 1
    31   18   20 1
    32   20   25 ar
    33   20   21 ar
    34   21   22 ar
    35   21   45 1
    36   22   23 ar
    37   22   46 1
    38   23   24 ar
    39   23   47 1
    40   24   25 ar
    41   24   26 1
    42   25   48 1
    43   26   27 1
    44   27   28 1
    45   27   49 1
    46   27   50 1
    47   28   29 1
    48   28   51 1
    49   28   52 1
    50   29   30 1
    51   29   31 1
    52   29   53 1
    53   30   54 1
    54   30   55 1
    55   30   56 1
    56   31   57 1
    57   31   58 1
    58   31   59 1
    59   32   33 1
    60   32   60 1
    61   32   61 1
    62   33   34 1
    63   33   62 1
    64   33   63 1
    65   34   35 1
    66   34   64 1
    67   34   65 1
    68   35   36 1
    69   36   66 1
    70   36   67 1
    71   36   68 1
    72   38   69 1
    73   38   70 1
    74   38   71 1
@<TRIPOS>MOLECULE
ZINC03977796
   95    97     0     0     0
SMALL
USER_CHARGES
6-[7-[5-ethyl-5-(5-ethyl-5-hydroxy-6-methyl-tetrahydropyran-2-yl)-3-methyl-tetrahydrofuran-2-yl]-4-hydroxy-3,5-dimethyl-6-oxo-nonyl]-2-hydroxy-3-methyl-benzoic acid
@<TRIPOS>ATOM
      1 C1          0.8354    3.3604    4.0387 C.3       1 <0>        -0.1587
      2 C2         -0.2676    2.6016    3.2982 C.3       1 <0>        -0.1079
      3 C3          0.3171    1.3332    2.6733 C.3       1 <0>        -0.1233
      4 H1          1.0991    1.5747    2.0988 H         1 <0>         0.0939
      5 C4         -0.7506    0.6467    1.8192 C.3       1 <0>         0.0851
      6 H2         -0.4025   -0.3285    1.4786 H         1 <0>         0.0881
      7 C5         -1.1415    1.5385    0.6132 C.3       1 <0>        -0.1245
      8 H3         -1.1543    2.5911    0.8959 H         1 <0>         0.0902
      9 C6         -2.5689    1.0358    0.2873 C.3       1 <0>        -0.1355
     10 C7         -3.0365    0.3564    1.5890 C.3       1 <0>         0.1182
     11 O1         -1.9853    0.5168    2.5562 O.3       1 <0>        -0.3422
     12 C8         -3.2895   -1.1314    1.3375 C.3       1 <0>        -0.1302
     13 C9         -1.9978   -1.7938    0.8541 C.3       1 <0>        -0.1630
     14 C10        -4.3167    1.0230    2.0966 C.3       1 <0>         0.1024
     15 H4         -4.1273    2.0805    2.2812 H         1 <0>         0.0642
     16 C11        -4.7618    0.3495    3.3974 C.3       1 <0>        -0.1454
     17 C12        -6.0758    0.9815    3.8668 C.3       1 <0>        -0.1515
     18 C13        -7.1207    0.8466    2.7549 C.3       1 <0>         0.1072
     19 C14        -6.5843    1.5011    1.4791 C.3       1 <0>         0.1073
     20 H5         -6.4248    2.5648    1.6555 H         1 <0>         0.0631
     21 O2         -5.3462    0.8875    1.1148 O.3       1 <0>        -0.3616
     22 C15        -7.5971    1.3179    0.3470 C.3       1 <0>        -0.1417
     23 C16        -7.4001   -0.6344    2.4911 C.3       1 <0>        -0.1477
     24 C17        -7.9361   -1.2873    3.7668 C.3       1 <0>        -0.1606
     25 O3         -8.3290    1.4969    3.1536 O.3       1 <0>        -0.5559
     26 C18        -0.1972    1.3044   -0.5677 C.3       1 <0>        -0.1451
     27 C19         0.7660    0.3964    3.7650 C.2       1 <0>         0.3627
     28 O4          0.1906    0.3865    4.8267 O.2       1 <0>        -0.4100
     29 C20         1.9330   -0.5282    3.5318 C.3       1 <0>        -0.1681
     30 H6          2.5960   -0.0829    2.9301 H         1 <0>         0.0949
     31 C21         1.4377   -1.8196    2.8778 C.3       1 <0>        -0.1484
     32 C22         2.5986   -0.8568    4.8696 C.3       1 <0>         0.1268
     33 H7          2.9025    0.0675    5.3610 H         1 <0>         0.1004
     34 C23         3.8289   -1.7330    4.6256 C.3       1 <0>        -0.1170
     35 H8          3.5395   -2.6144    4.0533 H         1 <0>         0.0689
     36 C24         4.4196   -2.1681    5.9682 C.3       1 <0>        -0.1414
     37 C25         4.8747   -0.9370    3.8422 C.3       1 <0>        -0.1136
     38 C26         6.0514   -1.8493    3.4901 C.3       1 <0>        -0.0755
     39 C27         7.0815   -1.0652    2.7186 C.ar      1 <0>        -0.0603
     40 C28         7.0771   -1.0891    1.3407 C.ar      1 <0>        -0.1294
     41 C29         8.0215   -0.3705    0.6261 C.ar      1 <0>        -0.1228
     42 C30         8.9769    0.3772    1.2859 C.ar      1 <0>        -0.1248
     43 C31         8.9968    0.4127    2.6719 C.ar      1 <0>         0.1158
     44 C32         8.0388   -0.3084    3.3991 C.ar      1 <0>        -0.1039
     45 C33         8.0454   -0.2729    4.8727 C.2       1 <0>         0.5076
     46 O5          8.6931   -1.0896    5.4972 O.co2     1 <0>        -0.6260
     47 O6          9.9349    1.1463    3.3212 O.3       1 <0>        -0.4901
     48 C34         9.9995    1.1551    0.4984 C.3       1 <0>        -0.1044
     49 O7          1.6728   -1.5571    5.7030 O.3       1 <0>        -0.5396
     50 H9          1.3015    2.7010    4.7709 H         1 <0>         0.0564
     51 H10         1.5862    3.6986    3.3245 H         1 <0>         0.0541
     52 H11         0.4044    4.2222    4.5483 H         1 <0>         0.0572
     53 H12        -0.6813    3.2356    2.5140 H         1 <0>         0.0663
     54 H13        -1.0563    2.3305    4.0001 H         1 <0>         0.0807
     55 H14        -3.2208    1.8732    0.0385 H         1 <0>         0.0796
     56 H15        -2.5423    0.3157   -0.5306 H         1 <0>         0.0825
     57 H16        -3.6168   -1.6058    2.2627 H         1 <0>         0.0698
     58 H17        -4.0626   -1.2452    0.5776 H         1 <0>         0.0777
     59 H18        -1.6021   -1.2400    0.0027 H         1 <0>         0.0581
     60 H19        -1.2648   -1.7924    1.6608 H         1 <0>         0.0613
     61 H20        -2.2063   -2.8208    0.5544 H         1 <0>         0.0554
     62 H21        -4.9122   -0.7159    3.2230 H         1 <0>         0.0777
     63 H22        -3.9966    0.4901    4.1608 H         1 <0>         0.0860
     64 H23        -5.9139    2.0363    4.0890 H         1 <0>         0.0699
     65 H24        -6.4284    0.4702    4.7625 H         1 <0>         0.0740
     66 H25        -7.7568    0.2541    0.1710 H         1 <0>         0.0646
     67 H26        -8.5414    1.7859    0.6250 H         1 <0>         0.0778
     68 H27        -7.2146    1.7830   -0.5615 H         1 <0>         0.0615
     69 H28        -8.1400   -0.7286    1.6963 H         1 <0>         0.0726
     70 H29        -6.4775   -1.1301    2.1893 H         1 <0>         0.0799
     71 H30        -7.1962   -1.1931    4.5617 H         1 <0>         0.0589
     72 H31        -8.8587   -0.7916    4.0687 H         1 <0>         0.0535
     73 H32        -8.1352   -2.3424    3.5789 H         1 <0>         0.0590
     74 H33        -8.7251    1.1327    3.9570 H         1 <0>         0.3768
     75 H34        -0.2497    0.2594   -0.8732 H         1 <0>         0.0583
     76 H35         0.8233    1.5451   -0.2701 H         1 <0>         0.0620
     77 H36        -0.4927    1.9418   -1.4010 H         1 <0>         0.0609
     78 H37         0.6558   -2.2626    3.4946 H         1 <0>         0.0624
     79 H38         1.0373   -1.5958    1.8890 H         1 <0>         0.0617
     80 H39         2.2671   -2.5205    2.7837 H         1 <0>         0.0762
     81 H40         3.6966   -2.7867    6.4999 H         1 <0>         0.0518
     82 H41         5.3307   -2.7411    5.7957 H         1 <0>         0.0580
     83 H42         4.6524   -1.2866    6.5655 H         1 <0>         0.0617
     84 H43         4.4268   -0.5518    2.9262 H         1 <0>         0.0552
     85 H44         5.2292   -0.1053    4.4511 H         1 <0>         0.0912
     86 H45         6.4992   -2.2345    4.4061 H         1 <0>         0.0810
     87 H46         5.6969   -2.6810    2.8813 H         1 <0>         0.0611
     88 H47         6.3343   -1.6711    0.8156 H         1 <0>         0.1166
     89 H48         8.0103   -0.3948   -0.4535 H         1 <0>         0.1167
     90 H49         9.6672    2.0582    3.4994 H         1 <0>         0.3846
     91 H50         9.6179    2.1560    0.2964 H         1 <0>         0.0621
     92 H51        10.9227    1.2274    1.0733 H         1 <0>         0.0689
     93 H52        10.1974    0.6447   -0.4441 H         1 <0>         0.0602
     94 H53         1.3591   -2.3913    5.3279 H         1 <0>         0.3618
     95 O8          7.3331    0.6652    5.5272 O.co2     1 <0>        -0.7506
@<TRIPOS>BOND
     1    1    2 1
     2    1   50 1
     3    1   51 1
     4    1   52 1
     5    2    3 1
     6    2   53 1
     7    2   54 1
     8    3    4 1
     9    3    5 1
    10    3   27 1
    11    5    6 1
    12    5   11 1
    13    5    7 1
    14    7    8 1
    15    7    9 1
    16    7   26 1
    17    9   10 1
    18    9   55 1
    19    9   56 1
    20   10   11 1
    21   10   12 1
    22   10   14 1
    23   12   13 1
    24   12   57 1
    25   12   58 1
    26   13   59 1
    27   13   60 1
    28   13   61 1
    29   14   15 1
    30   14   21 1
    31   14   16 1
    32   16   17 1
    33   16   62 1
    34   16   63 1
    35   17   18 1
    36   17   64 1
    37   17   65 1
    38   18   19 1
    39   18   23 1
    40   18   25 1
    41   19   20 1
    42   19   21 1
    43   19   22 1
    44   22   66 1
    45   22   67 1
    46   22   68 1
    47   23   24 1
    48   23   69 1
    49   23   70 1
    50   24   71 1
    51   24   72 1
    52   24   73 1
    53   25   74 1
    54   26   75 1
    55   26   76 1
    56   26   77 1
    57   27   28 2
    58   27   29 1
    59   29   30 1
    60   29   31 1
    61   29   32 1
    62   31   78 1
    63   31   79 1
    64   31   80 1
    65   32   33 1
    66   32   34 1
    67   32   49 1
    68   34   35 1
    69   34   36 1
    70   34   37 1
    71   36   81 1
    72   36   82 1
    73   36   83 1
    74   37   38 1
    75   37   84 1
    76   37   85 1
    77   38   39 1
    78   38   86 1
    79   38   87 1
    80   39   44 ar
    81   39   40 ar
    82   40   41 ar
    83   40   88 1
    84   41   42 ar
    85   41   89 1
    86   42   43 ar
    87   42   48 1
    88   43   44 ar
    89   43   47 1
    90   44   45 1
    91   45   46 2
    92   45   95 1
    93   47   90 1
    94   48   91 1
    95   48   92 1
    96   48   93 1
    97   49   94 1
@<TRIPOS>MOLECULE
ZINC33523001
   67    71     0     0     0
SMALL
USER_CHARGES
(2S)-2-(4-allyloxyphenyl)-4-hydroxy-3-(7-methoxybenzofuran-2-carbonyl)-1-(2-morpholinoethyl)-2H-pyrrol-5-one
@<TRIPOS>ATOM
      1 C1          0.9813    3.2120    6.4401 C.3       1 <0>         0.0242
      2 O1          1.3347    2.8804    5.0958 O.3       1 <0>        -0.3092
      3 C2          0.6114    1.9006    4.4912 C.ar      1 <0>         0.1455
      4 C3         -0.4229    1.2824    5.1699 C.ar      1 <0>        -0.1956
      5 C4         -1.1705    0.2828    4.5634 C.ar      1 <0>        -0.1018
      6 C5         -0.9008   -0.1034    3.2810 C.ar      1 <0>        -0.1045
      7 C6          0.1358    0.5128    2.5729 C.ar      1 <0>        -0.0979
      8 C7          0.9009    1.5253    3.1802 C.ar      1 <0>         0.0335
      9 O2          1.8149    1.9418    2.2812 O.3       1 <0>        -0.1521
     10 C8          1.6964    1.2585    1.1242 C.2       1 <0>         0.0077
     11 C9          0.6833    0.3553    1.2270 C.2       1 <0>        -0.1647
     12 C10         2.5339    1.4584   -0.0660 C.2       1 <0>         0.5383
     13 O3          2.4155    0.7175   -1.0255 O.2       1 <0>        -0.4453
     14 C11         3.5130    2.5504   -0.0990 C.2       1 <0>        -0.4968
     15 C12         4.8578    2.4263   -0.1835 C.2       1 <0>         0.2709
     16 C13         5.4702    3.7704   -0.1881 C.2       1 <0>         0.5139
     17 O4          6.6629    3.9929   -0.2556 O.2       1 <0>        -0.5308
     18 N1          4.5126    4.7120   -0.1073 N.am      1 <0>        -0.6092
     19 C14         3.2139    4.0306   -0.0517 C.3       1 <0>         0.2695
     20 H1          2.6784    4.3184    0.8651 H         1 <0>         0.0722
     21 C15         2.3665    4.4261   -1.2335 C.ar      1 <0>        -0.1102
     22 C16         2.9221    4.4649   -2.4990 C.ar      1 <0>        -0.0456
     23 C17         2.1460    4.8216   -3.5848 C.ar      1 <0>        -0.2098
     24 C18         0.8110    5.1521   -3.4029 C.ar      1 <0>         0.1195
     25 C19         0.2573    5.1179   -2.1313 C.ar      1 <0>        -0.1520
     26 C20         1.0362    4.7550   -1.0496 C.ar      1 <0>        -0.0762
     27 O5          0.0467    5.5083   -4.4687 O.3       1 <0>        -0.3145
     28 C21         0.6833    5.5215   -5.7480 C.3       1 <0>         0.0852
     29 C22        -0.3122    5.9374   -6.8002 C.2       1 <0>        -0.1545
     30 C23         0.0263    6.8156   -7.7114 C.2       1 <0>        -0.1795
     31 C24         4.7278    6.1609   -0.0854 C.3       1 <0>         0.1425
     32 C25         4.7161    6.7000   -1.5172 C.3       1 <0>         0.0310
     33 N2          4.9318    8.1529   -1.4952 N.3       1 <0>        -0.5320
     34 C26         3.8008    8.8439   -0.8591 C.3       1 <0>         0.0123
     35 C27         4.0932   10.3457   -0.8036 C.3       1 <0>         0.0633
     36 O6          4.3464   10.8261   -2.1266 O.3       1 <0>        -0.3876
     37 C28         5.4421   10.1753   -2.7756 C.3       1 <0>         0.0638
     38 C29         5.1634    8.6718   -2.8511 C.3       1 <0>         0.0186
     39 O7          5.5346    1.2561   -0.2521 O.3       1 <0>        -0.6479
     40 H2          1.6405    4.0132    6.8055 H         1 <0>         0.1022
     41 H3          1.0950    2.3237    7.0789 H         1 <0>         0.0566
     42 H4         -0.0636    3.5543    6.4707 H         1 <0>         0.0564
     43 H5         -0.6477    1.5768    6.1844 H         1 <0>         0.1369
     44 H6         -1.9713   -0.1937    5.1094 H         1 <0>         0.1293
     45 H7         -1.4867   -0.8820    2.8152 H         1 <0>         0.1288
     46 H8          0.3488   -0.3347    0.4665 H         1 <0>         0.1668
     47 H9          3.9626    4.2117   -2.6394 H         1 <0>         0.1198
     48 H10         2.5794    4.8475   -4.5737 H         1 <0>         0.1214
     49 H11        -0.7819    5.3744   -1.9873 H         1 <0>         0.1256
     50 H12         0.6057    4.7286   -0.0595 H         1 <0>         0.1260
     51 H13         1.5208    6.2345   -5.7334 H         1 <0>         0.0651
     52 H14         1.0624    4.5151   -5.9793 H         1 <0>         0.0728
     53 H15        -1.3230    5.5036   -6.8031 H         1 <0>         0.1214
     54 H16        -0.7003    7.1192   -8.4794 H         1 <0>         0.1089
     55 H17         1.0371    7.2494   -7.7085 H         1 <0>         0.1010
     56 H18         3.9260    6.6419    0.4941 H         1 <0>         0.0738
     57 H19         5.6996    6.3803    0.3810 H         1 <0>         0.0876
     58 H20         5.5179    6.2190   -2.0966 H         1 <0>         0.0786
     59 H21         3.7444    6.4806   -1.9837 H         1 <0>         0.0529
     60 H22         2.8869    8.6677   -1.4453 H         1 <0>         0.0437
     61 H23         3.6620    8.4574    0.1614 H         1 <0>         0.0894
     62 H24         3.2257   10.8727   -0.3798 H         1 <0>         0.0970
     63 H25         4.9755   10.5244   -0.1714 H         1 <0>         0.0600
     64 H26         5.5591   10.5800   -3.7917 H         1 <0>         0.0964
     65 H27         6.3645   10.3509   -2.2025 H         1 <0>         0.0602
     66 H28         6.0280    8.1586   -3.2974 H         1 <0>         0.0864
     67 H29         4.2715    8.4928   -3.4695 H         1 <0>         0.0414
@<TRIPOS>BOND
     1    1    2 1
     2    1   40 1
     3    1   41 1
     4    1   42 1
     5    2    3 1
     6    3    8 ar
     7    3    4 ar
     8    4    5 ar
     9    4   43 1
    10    5    6 ar
    11    5   44 1
    12    6    7 ar
    13    6   45 1
    14    7   11 1
    15    7    8 ar
    16    8    9 1
    17    9   10 1
    18   10   11 2
    19   10   12 1
    20   11   46 1
    21   12   13 2
    22   12   14 1
    23   14   19 1
    24   14   15 2
    25   15   16 1
    26   15   39 1
    27   16   17 2
    28   16   18 am
    29   18   19 1
    30   18   31 1
    31   19   20 1
    32   19   21 1
    33   21   26 ar
    34   21   22 ar
    35   22   23 ar
    36   22   47 1
    37   23   24 ar
    38   23   48 1
    39   24   25 ar
    40   24   27 1
    41   25   26 ar
    42   25   49 1
    43   26   50 1
    44   27   28 1
    45   28   29 1
    46   28   51 1
    47   28   52 1
    48   29   30 2
    49   29   53 1
    50   30   54 1
    51   30   55 1
    52   31   32 1
    53   31   56 1
    54   31   57 1
    55   32   33 1
    56   32   58 1
    57   32   59 1
    58   33   38 1
    59   33   34 1
    60   34   35 1
    61   34   60 1
    62   34   61 1
    63   35   36 1
    64   35   62 1
    65   35   63 1
    66   36   37 1
    67   37   38 1
    68   37   64 1
    69   37   65 1
    70   38   66 1
    71   38   67 1
@<TRIPOS>MOLECULE
ZINC35443825
   76    79     0     0     0
SMALL
USER_CHARGES

@<TRIPOS>ATOM
      1 C1         -3.6981    2.2825    0.7576 C.3       1 <0>        -0.1464
      2 C2         -4.1681    0.8728    0.3931 C.3       1 <0>        -0.0936
      3 C3         -4.8470    0.9001   -0.9777 C.3       1 <0>        -0.1525
      4 C4         -2.9643   -0.0703    0.3474 C.3       1 <0>        -0.1134
      5 C5         -3.4469   -1.5020    0.1061 C.3       1 <0>         0.0586
      6 O1         -2.3225   -2.3829    0.0634 O.3       1 <0>        -0.3071
      7 C6         -2.5792   -3.7020   -0.1449 C.ar      1 <0>         0.0942
      8 C7         -3.8841   -4.1378   -0.3103 C.ar      1 <0>        -0.1693
      9 C8         -4.1433   -5.4790   -0.5224 C.ar      1 <0>        -0.1153
     10 C9         -3.1029   -6.3882   -0.5697 C.ar      1 <0>        -0.0620
     11 C10        -1.7988   -5.9602   -0.4050 C.ar      1 <0>        -0.1424
     12 C11        -1.5316   -4.6163   -0.1982 C.ar      1 <0>         0.0966
     13 O2         -0.2488   -4.1927   -0.0420 O.3       1 <0>        -0.3084
     14 C12         0.7810   -5.1713   -0.1969 C.3       1 <0>         0.0267
     15 C13        -3.3911   -7.8493   -0.8007 C.3       1 <0>         0.2527
     16 H1         -4.4383   -7.9863   -1.0704 H         1 <0>         0.0745
     17 C14        -3.0659   -8.6458    0.4413 C.2       1 <0>        -0.4778
     18 C15        -2.1031   -9.5312    0.0963 C.2       1 <0>         0.2760
     19 C16        -1.7716   -9.3564   -1.3323 C.2       1 <0>         0.5071
     20 O3         -0.9432  -10.0050   -1.9402 O.2       1 <0>        -0.5324
     21 N1         -2.5238   -8.3731   -1.8625 N.am      1 <0>        -0.6089
     22 C17        -2.4840   -7.9084   -3.2513 C.3       1 <0>         0.1429
     23 C18        -1.4570   -6.7820   -3.3830 C.3       1 <0>         0.0344
     24 N2         -1.4171   -6.3161   -4.7755 N.3       1 <0>        -0.5311
     25 C19        -0.8950   -7.3625   -5.6665 C.3       1 <0>         0.0113
     26 C20        -0.9266   -6.8574   -7.1114 C.3       1 <0>         0.0657
     27 O4         -0.1757   -5.6437   -7.2034 O.3       1 <0>        -0.3878
     28 C21        -0.6573   -4.6026   -6.3493 C.3       1 <0>         0.0661
     29 C22        -0.6230   -5.0848   -4.8966 C.3       1 <0>         0.0193
     30 O5         -1.5334  -10.4340    0.9286 O.3       1 <0>        -0.6086
     31 C23        -3.6764   -8.4886    1.7670 C.2       1 <0>         0.4415
     32 O6         -3.3566   -9.2330    2.6771 O.2       1 <0>        -0.4938
     33 C24        -4.6692   -7.4377    1.9956 C.2       1 <0>        -0.1726
     34 C25        -5.1532   -7.2247    3.2385 C.2       1 <0>        -0.0873
     35 C26        -6.2404   -6.2563    3.4485 C.ar      1 <0>        -0.0470
     36 C27        -6.8599   -5.6459    2.3525 C.ar      1 <0>        -0.1098
     37 C28        -7.8784   -4.7398    2.5577 C.ar      1 <0>        -0.1202
     38 C29        -8.2882   -4.4331    3.8438 C.ar      1 <0>        -0.1264
     39 C30        -7.6805   -5.0326    4.9335 C.ar      1 <0>        -0.1217
     40 C31        -6.6644   -5.9452    4.7450 C.ar      1 <0>        -0.1088
     41 H2         -4.5558    2.9544    0.7902 H         1 <0>         0.0557
     42 H3         -3.2144    2.2630    1.7342 H         1 <0>         0.0557
     43 H4         -2.9892    2.6343    0.0081 H         1 <0>         0.0555
     44 H5         -4.8770    0.5210    1.1427 H         1 <0>         0.0724
     45 H6         -5.1819   -0.1041   -1.2374 H         1 <0>         0.0567
     46 H7         -5.7047    1.5720   -0.9451 H         1 <0>         0.0552
     47 H8         -4.1382    1.2519   -1.7273 H         1 <0>         0.0563
     48 H9         -2.2982    0.2298   -0.4616 H         1 <0>         0.0726
     49 H10        -2.4288   -0.0223    1.2956 H         1 <0>         0.0729
     50 H11        -4.1130   -1.8020    0.9151 H         1 <0>         0.0585
     51 H12        -3.9823   -1.5500   -0.8421 H         1 <0>         0.0606
     52 H13        -4.6987   -3.4297   -0.2731 H         1 <0>         0.1296
     53 H14        -5.1608   -5.8174   -0.6512 H         1 <0>         0.1244
     54 H15        -0.9879   -6.6726   -0.4419 H         1 <0>         0.1296
     55 H16         0.6066   -5.9950    0.4954 H         1 <0>         0.0585
     56 H17         0.7731   -5.5484   -1.2196 H         1 <0>         0.0490
     57 H18         1.7488   -4.7171    0.0154 H         1 <0>         0.0976
     58 H19        -2.2020   -8.7353   -3.9031 H         1 <0>         0.0769
     59 H20        -3.4681   -7.5383   -3.5389 H         1 <0>         0.0844
     60 H21        -1.7390   -5.9552   -2.7311 H         1 <0>         0.0875
     61 H22        -0.4729   -7.1521   -3.0954 H         1 <0>         0.0368
     62 H23         0.1312   -7.6002   -5.3864 H         1 <0>         0.0443
     63 H24        -1.5130   -8.2561   -5.5797 H         1 <0>         0.0899
     64 H25        -0.4875   -7.6077   -7.7689 H         1 <0>         0.0966
     65 H26        -1.9584   -6.6706   -7.4092 H         1 <0>         0.0594
     66 H27        -0.0236   -3.7222   -6.4556 H         1 <0>         0.0958
     67 H28        -1.6813   -4.3502   -6.6249 H         1 <0>         0.0592
     68 H29        -1.0425   -4.3159   -4.2479 H         1 <0>         0.0856
     69 H30         0.4076   -5.2862   -4.6042 H         1 <0>         0.0413
     70 H31        -5.0148   -6.8326    1.1705 H         1 <0>         0.1228
     71 H32        -4.7420   -7.7653    4.0782 H         1 <0>         0.1283
     72 H33        -6.5408   -5.8836    1.3485 H         1 <0>         0.1256
     73 H34        -8.3576   -4.2677    1.7128 H         1 <0>         0.1204
     74 H35        -9.0862   -3.7218    3.9980 H         1 <0>         0.1177
     75 H36        -8.0060   -4.7880    5.9338 H         1 <0>         0.1200
     76 H37        -6.1940   -6.4153    5.5960 H         1 <0>         0.1241
@<TRIPOS>BOND
     1    1    2 1
     2    1   41 1
     3    1   42 1
     4    1   43 1
     5    2    3 1
     6    2    4 1
     7    2   44 1
     8    3   45 1
     9    3   46 1
    10    3   47 1
    11    4    5 1
    12    4   48 1
    13    4   49 1
    14    5    6 1
    15    5   50 1
    16    5   51 1
    17    6    7 1
    18    7   12 ar
    19    7    8 ar
    20    8    9 ar
    21    8   52 1
    22    9   10 ar
    23    9   53 1
    24   10   11 ar
    25   10   15 1
    26   11   12 ar
    27   11   54 1
    28   12   13 1
    29   13   14 1
    30   14   55 1
    31   14   56 1
    32   14   57 1
    33   15   16 1
    34   15   21 1
    35   15   17 1
    36   17   18 2
    37   17   31 1
    38   18   19 1
    39   18   30 1
    40   19   20 2
    41   19   21 am
    42   21   22 1
    43   22   23 1
    44   22   58 1
    45   22   59 1
    46   23   24 1
    47   23   60 1
    48   23   61 1
    49   24   29 1
    50   24   25 1
    51   25   26 1
    52   25   62 1
    53   25   63 1
    54   26   27 1
    55   26   64 1
    56   26   65 1
    57   27   28 1
    58   28   29 1
    59   28   66 1
    60   28   67 1
    61   29   68 1
    62   29   69 1
    63   31   32 2
    64   31   33 1
    65   33   34 2
    66   33   70 1
    67   34   35 1
    68   34   71 1
    69   35   40 ar
    70   35   36 ar
    71   36   37 ar
    72   36   72 1
    73   37   38 ar
    74   37   73 1
    75   38   39 ar
    76   38   74 1
    77   39   40 ar
    78   39   75 1
    79   40   76 1
@<TRIPOS>MOLECULE
ZINC39827673
   70    73     0     0     0
SMALL
USER_CHARGES

@<TRIPOS>ATOM
      1 C1         -0.5990   -6.1945   -1.4582 C.3       1 <0>        -0.1473
      2 C2         -1.7391   -6.8141   -0.6475 C.3       1 <0>        -0.0947
      3 C3         -1.2150   -7.2427    0.7245 C.3       1 <0>        -0.1464
      4 C4         -2.8558   -5.7837   -0.4678 C.3       1 <0>         0.0614
      5 O1         -3.4240   -5.4702   -1.7409 O.3       1 <0>        -0.3123
      6 C5         -4.4350   -4.5652   -1.7583 C.ar      1 <0>         0.1453
      7 C6         -4.8672   -3.9857   -0.5705 C.ar      1 <0>        -0.2239
      8 C7         -5.8924   -3.0672   -0.5837 C.ar      1 <0>        -0.0329
      9 C8         -6.4990   -2.7168   -1.7938 C.ar      1 <0>        -0.1780
     10 C9         -6.0610   -3.3016   -2.9860 C.ar      1 <0>        -0.0273
     11 C10        -5.0319   -4.2157   -2.9645 C.ar      1 <0>        -0.1672
     12 C11        -7.5990   -1.7327   -1.8127 C.2       1 <0>         0.5040
     13 O2         -8.0245   -1.2756   -0.7681 O.2       1 <0>        -0.4782
     14 C12        -8.1792   -1.3059   -3.0900 C.2       1 <0>        -0.5063
     15 C13        -9.4563   -1.4899   -3.4980 C.2       1 <0>         0.2681
     16 C14        -9.6238   -0.9087   -4.8465 C.2       1 <0>         0.5119
     17 O3        -10.6578   -0.9139   -5.4845 O.2       1 <0>        -0.5289
     18 N1         -8.4621   -0.3731   -5.2632 N.am      1 <0>        -0.6129
     19 C15        -7.4680   -0.5701   -4.2016 C.3       1 <0>         0.2633
     20 H1         -6.6373   -1.1685   -4.5756 H         1 <0>         0.0780
     21 C16        -6.9661    0.7608   -3.7038 C.ar      1 <0>        -0.0700
     22 C17        -7.8636    1.7641   -3.3886 C.ar      1 <0>        -0.0301
     23 C18        -7.4033    2.9848   -2.9320 C.ar      1 <0>        -0.1174
     24 C19        -6.0453    3.2023   -2.7901 C.ar      1 <0>        -0.0603
     25 C20        -5.1482    2.1990   -3.1044 C.ar      1 <0>        -0.0515
     26 C21        -5.6088    0.9766   -3.5570 C.ar      1 <0>        -0.0522
     27 N2         -3.6943    2.4321   -2.9530 N.pl3     1 <0>         0.0400
     28 O4         -3.2865    3.5282   -2.6464 O.2       1 <0>        -0.1717
     29 O5         -2.9146    1.5265   -3.1360 O.3       1 <0>        -0.1645
     30 C22        -8.2318    0.2944   -6.5468 C.3       1 <0>         0.1373
     31 C23        -8.5216    1.7898   -6.4032 C.3       1 <0>        -0.1410
     32 C24        -8.2811    2.4870   -7.7437 C.3       1 <0>         0.0601
     33 N3         -8.5594    3.9228   -7.6058 N.3       1 <0>        -0.5349
     34 C25        -9.9869    4.1603   -7.3467 C.3       1 <0>         0.0139
     35 C26       -10.2218    5.6604   -7.1509 C.3       1 <0>         0.0641
     36 O6         -9.7564    6.3654   -8.3049 O.3       1 <0>        -0.3874
     37 C27        -8.3697    6.1572   -8.5863 C.3       1 <0>         0.0641
     38 C28        -8.1161    4.6621   -8.7967 C.3       1 <0>         0.0176
     39 O7        -10.4258   -2.1078   -2.7846 O.3       1 <0>        -0.6444
     40 H2          0.1965   -6.9285   -1.5862 H         1 <0>         0.0551
     41 H3         -0.9724   -5.8891   -2.4356 H         1 <0>         0.0638
     42 H4         -0.2089   -5.3243   -0.9302 H         1 <0>         0.0544
     43 H5         -2.1292   -7.6843   -1.1755 H         1 <0>         0.0806
     44 H6         -0.8249   -6.3725    1.2525 H         1 <0>         0.0580
     45 H7         -2.0272   -7.6841    1.3021 H         1 <0>         0.0575
     46 H8         -0.4195   -7.9768    0.5965 H         1 <0>         0.0634
     47 H9         -3.6275   -6.1941    0.1834 H         1 <0>         0.0619
     48 H10        -2.4461   -4.8783   -0.0199 H         1 <0>         0.0630
     49 H11        -4.3981   -4.2569    0.3638 H         1 <0>         0.1262
     50 H12        -6.2280   -2.6180    0.3394 H         1 <0>         0.1308
     51 H13        -6.5269   -3.0337   -3.9228 H         1 <0>         0.1400
     52 H14        -4.6903   -4.6648   -3.8854 H         1 <0>         0.1312
     53 H15        -8.9244    1.5942   -3.4994 H         1 <0>         0.1362
     54 H16        -8.1043    3.7687   -2.6865 H         1 <0>         0.1431
     55 H17        -5.6856    4.1564   -2.4341 H         1 <0>         0.1470
     56 H18        -4.9080    0.1913   -3.7990 H         1 <0>         0.1492
     57 H19        -7.1941    0.1528   -6.8490 H         1 <0>         0.0761
     58 H20        -8.8917   -0.1327   -7.3020 H         1 <0>         0.0803
     59 H21        -9.5593    1.9315   -6.1010 H         1 <0>         0.0687
     60 H22        -7.8618    2.2169   -5.6480 H         1 <0>         0.0780
     61 H23        -7.2435    2.3454   -8.0459 H         1 <0>         0.0762
     62 H24        -8.9410    2.0599   -8.4989 H         1 <0>         0.0376
     63 H25       -10.5743    3.8075   -8.1945 H         1 <0>         0.0431
     64 H26       -10.2876    3.6242   -6.4465 H         1 <0>         0.0910
     65 H27       -11.2871    5.8473   -7.0153 H         1 <0>         0.0977
     66 H28        -9.6767    6.0023   -6.2711 H         1 <0>         0.0600
     67 H29        -8.0955    6.7034   -9.4888 H         1 <0>         0.0962
     68 H30        -7.7708    6.5136   -7.7482 H         1 <0>         0.0594
     69 H31        -7.0511    4.4924   -8.9549 H         1 <0>         0.0851
     70 H32        -8.6735    4.3174   -9.6676 H         1 <0>         0.0418
@<TRIPOS>BOND
     1    1    2 1
     2    1   40 1
     3    1   41 1
     4    1   42 1
     5    2    3 1
     6    2    4 1
     7    2   43 1
     8    3   44 1
     9    3   45 1
    10    3   46 1
    11    4    5 1
    12    4   47 1
    13    4   48 1
    14    5    6 1
    15    6   11 ar
    16    6    7 ar
    17    7    8 ar
    18    7   49 1
    19    8    9 ar
    20    8   50 1
    21    9   10 ar
    22    9   12 1
    23   10   11 ar
    24   10   51 1
    25   11   52 1
    26   12   13 2
    27   12   14 1
    28   14   19 1
    29   14   15 2
    30   15   16 1
    31   15   39 1
    32   16   17 2
    33   16   18 am
    34   18   19 1
    35   18   30 1
    36   19   20 1
    37   19   21 1
    38   21   26 ar
    39   21   22 ar
    40   22   23 ar
    41   22   53 1
    42   23   24 ar
    43   23   54 1
    44   24   25 ar
    45   24   55 1
    46   25   26 ar
    47   25   27 1
    48   26   56 1
    49   27   28 2
    50   27   29 1
    51   30   31 1
    52   30   57 1
    53   30   58 1
    54   31   32 1
    55   31   59 1
    56   31   60 1
    57   32   33 1
    58   32   61 1
    59   32   62 1
    60   33   38 1
    61   33   34 1
    62   34   35 1
    63   34   63 1
    64   34   64 1
    65   35   36 1
    66   35   65 1
    67   35   66 1
    68   36   37 1
    69   37   38 1
    70   37   67 1
    71   37   68 1
    72   38   69 1
    73   38   70 1
@<TRIPOS>MOLECULE
ZINC40082933
   70    72     0     0     0
SMALL
USER_CHARGES

@<TRIPOS>ATOM
      1 C1         -2.1485    2.0456    2.8000 C.3       1 <0>        -0.1100
      2 C2         -0.8332    2.7811    2.8018 C.ar      1 <0>        -0.0003
      3 C3         -0.8102    4.1523    2.9237 C.ar      1 <0>        -0.1522
      4 C4          0.4027    4.8318    2.9251 C.ar      1 <0>         0.1240
      5 C5          1.5974    4.1303    2.8039 C.ar      1 <0>        -0.2149
      6 C6          1.5834    2.7594    2.6816 C.ar      1 <0>        -0.0500
      7 C7          0.3658    2.0715    2.6856 C.ar      1 <0>        -0.1142
      8 C8          0.3463    0.6007    2.5613 C.2       1 <0>         0.4809
      9 O1          0.5255    0.0793    1.4763 O.2       1 <0>        -0.5209
     10 C9          0.1111   -0.2321    3.7451 C.2       1 <0>        -0.4783
     11 C10        -0.0501    0.2006    5.0171 C.2       1 <0>         0.2790
     12 C11        -0.2634   -0.9634    5.9026 C.2       1 <0>         0.5041
     13 O2         -0.4399   -0.9031    7.1031 O.2       1 <0>        -0.5374
     14 N1         -0.2337   -2.0996    5.1826 N.am      1 <0>        -0.6014
     15 C12        -0.0046   -1.7381    3.7787 C.3       1 <0>         0.2632
     16 H1         -0.8438   -2.0634    3.1638 H         1 <0>         0.0827
     17 C13         1.2735   -2.3671    3.2870 C.ar      1 <0>         0.0134
     18 C14         2.3775   -2.4239    4.1169 C.ar      1 <0>        -0.2144
     19 C15         3.5556   -3.0014    3.6680 C.ar      1 <0>         0.1406
     20 C16         3.6253   -3.5239    2.3821 C.ar      1 <0>         0.0148
     21 C17         2.5129   -3.4653    1.5511 C.ar      1 <0>         0.1445
     22 C18         1.3370   -2.8908    2.0093 C.ar      1 <0>        -0.1963
     23 O3          2.5760   -3.9752    0.2919 O.3       1 <0>        -0.3085
     24 C19         1.4307   -3.7882   -0.5419 C.3       1 <0>         0.0262
     25 O4          4.7798   -4.0912    1.9377 O.3       1 <0>        -0.3130
     26 C20         4.9434   -5.4925    2.1646 C.3       1 <0>         0.0362
     27 O5          4.6416   -3.0559    4.4849 O.3       1 <0>        -0.3078
     28 C21         4.4980   -2.4989    5.7930 C.3       1 <0>         0.0270
     29 C22        -0.4055   -3.4569    5.7064 C.3       1 <0>         0.1382
     30 C23        -1.8886   -3.8317    5.6749 C.3       1 <0>         0.0455
     31 O6         -2.3364   -3.8902    4.3192 O.3       1 <0>        -0.3687
     32 C24        -3.7161   -4.2343    4.1771 C.3       1 <0>         0.0622
     33 C25        -4.0833   -4.2671    2.6922 C.3       1 <0>         0.0783
     34 O7         -3.3629   -5.3188    2.0465 O.3       1 <0>        -0.5650
     35 O8         -0.0203    1.4934    5.4152 O.3       1 <0>        -0.6115
     36 O9          0.4208    6.1834    3.0445 O.3       1 <0>        -0.3154
     37 C26         1.6908    6.8280    2.9278 C.3       1 <0>         0.0859
     38 C27         1.5261    8.3080    3.1590 C.2       1 <0>        -0.1502
     39 C28         2.3689    8.9481    3.9311 C.2       1 <0>        -0.1777
     40 H2         -2.3699    1.6945    3.8079 H         1 <0>         0.0799
     41 H3         -2.9398    2.7172    2.4671 H         1 <0>         0.0587
     42 H4         -2.0871    1.1930    2.1236 H         1 <0>         0.0650
     43 H5         -1.7358    4.7008    3.0181 H         1 <0>         0.1237
     44 H6          2.5374    4.6620    2.8053 H         1 <0>         0.1200
     45 H7          2.5116    2.2154    2.5872 H         1 <0>         0.1176
     46 H8          2.3226   -2.0175    5.1160 H         1 <0>         0.1278
     47 H9          0.4707   -2.8488    1.3657 H         1 <0>         0.1345
     48 H10         0.5527   -4.2110   -0.0535 H         1 <0>         0.0557
     49 H11         1.2745   -2.7228   -0.7112 H         1 <0>         0.0618
     50 H12         1.5911   -4.2882   -1.4971 H         1 <0>         0.0946
     51 H13         5.9035   -5.8160    1.7625 H         1 <0>         0.0852
     52 H14         4.9116   -5.6934    3.2354 H         1 <0>         0.0400
     53 H15         4.1398   -6.0371    1.6688 H         1 <0>         0.0409
     54 H16         4.2452   -1.4417    5.7120 H         1 <0>         0.0581
     55 H17         3.7041   -3.0225    6.3258 H         1 <0>         0.0535
     56 H18         5.4350   -2.6077    6.3391 H         1 <0>         0.0975
     57 H19         0.1595   -4.1578    5.0919 H         1 <0>         0.0850
     58 H20        -0.0419   -3.4989    6.7331 H         1 <0>         0.0929
     59 H21        -2.0274   -4.8050    6.1457 H         1 <0>         0.0553
     60 H22        -2.4646   -3.0810    6.2158 H         1 <0>         0.0532
     61 H23        -3.8928   -5.2159    4.6169 H         1 <0>         0.0515
     62 H24        -4.3301   -3.4919    4.6870 H         1 <0>         0.0606
     63 H25        -5.1540   -4.4418    2.5865 H         1 <0>         0.0567
     64 H26        -3.8237   -3.3134    2.2326 H         1 <0>         0.0574
     65 H27        -3.5470   -5.3985    1.1005 H         1 <0>         0.3765
     66 H28         2.3758    6.4183    3.6701 H         1 <0>         0.0664
     67 H29         2.0937    6.6588    1.9292 H         1 <0>         0.0695
     68 H30         0.7133    8.8409    2.6881 H         1 <0>         0.1179
     69 H31         3.1817    8.4152    4.4019 H         1 <0>         0.0993
     70 H32         2.2508   10.0088    4.0967 H         1 <0>         0.1053
@<TRIPOS>BOND
     1    1    2 1
     2    1   40 1
     3    1   41 1
     4    1   42 1
     5    2    7 ar
     6    2    3 ar
     7    3    4 ar
     8    3   43 1
     9    4    5 ar
    10    4   36 1
    11    5    6 ar
    12    5   44 1
    13    6    7 ar
    14    6   45 1
    15    7    8 1
    16    8    9 2
    17    8   10 1
    18   10   15 1
    19   10   11 2
    20   11   12 1
    21   11   35 1
    22   12   13 2
    23   12   14 am
    24   14   15 1
    25   14   29 1
    26   15   16 1
    27   15   17 1
    28   17   22 ar
    29   17   18 ar
    30   18   19 ar
    31   18   46 1
    32   19   20 ar
    33   19   27 1
    34   20   21 ar
    35   20   25 1
    36   21   22 ar
    37   21   23 1
    38   22   47 1
    39   23   24 1
    40   24   48 1
    41   24   49 1
    42   24   50 1
    43   25   26 1
    44   26   51 1
    45   26   52 1
    46   26   53 1
    47   27   28 1
    48   28   54 1
    49   28   55 1
    50   28   56 1
    51   29   30 1
    52   29   57 1
    53   29   58 1
    54   30   31 1
    55   30   59 1
    56   30   60 1
    57   31   32 1
    58   32   33 1
    59   32   61 1
    60   32   62 1
    61   33   34 1
    62   33   63 1
    63   33   64 1
    64   34   65 1
    65   36   37 1
    66   37   38 1
    67   37   66 1
    68   37   67 1
    69   38   39 2
    70   38   68 1
    71   39   69 1
    72   39   70 1
@<TRIPOS>MOLECULE
ZINC43218507
   67    71     0     0     0
SMALL
USER_CHARGES

@<TRIPOS>ATOM
      1 C1         -0.0187    1.5258    0.0104 C.3       1 <0>        -0.1541
      2 C2          0.0021   -0.0041    0.0020 C.3       1 <0>        -0.1249
      3 C3          0.7182   -0.4975   -1.2568 C.3       1 <0>        -0.1176
      4 C4          0.7390   -2.0273   -1.2652 C.3       1 <0>        -0.0906
      5 C5          1.4443   -2.5133   -2.5051 C.2       1 <0>        -0.1522
      6 C6          2.4617   -3.3320   -2.4015 C.2       1 <0>        -0.1545
      7 C7          3.1671   -3.8180   -3.6414 C.3       1 <0>        -0.1055
      8 C8          4.6606   -3.5032   -3.5350 C.3       1 <0>         0.1034
      9 N1          5.3463   -3.9756   -4.7403 N.am      1 <0>        -0.5745
     10 C9          5.8554   -5.2085   -4.8470 C.2       1 <0>         0.5327
     11 O1          5.8137   -6.0607   -3.9859 O.2       1 <0>        -0.4797
     12 C10         6.4904   -5.3730   -6.2095 C.3       1 <0>        -0.1162
     13 H1          6.0619   -6.1999   -6.7759 H         1 <0>         0.1384
     14 C11         8.0197   -5.4950   -6.0453 C.3       1 <0>         0.1650
     15 H2          8.3219   -5.1699   -5.0498 H         1 <0>         0.0682
     16 N2          8.5834   -4.5894   -7.0787 N.3       1 <0>        -0.5913
     17 C12         7.6878   -3.4049   -7.0532 C.3       1 <0>         0.0546
     18 C13         6.2551   -3.9947   -6.8836 C.3       1 <0>        -0.0915
     19 H3          5.7081   -4.0710   -7.8233 H         1 <0>         0.1390
     20 C14         5.5097   -3.2114   -5.8265 C.2       1 <0>         0.5343
     21 O2          5.1228   -2.0685   -5.9438 O.2       1 <0>        -0.4478
     22 C15         8.0400   -2.4958   -5.8740 C.3       1 <0>        -0.1045
     23 C16         9.4552   -2.0010   -6.0264 C.ar      1 <0>        -0.0744
     24 C17        10.5032   -2.7396   -5.4800 C.ar      1 <0>        -0.1123
     25 C18        11.7926   -2.3207   -5.5993 C.ar      1 <0>        -0.1114
     26 C19        12.0751   -1.1261   -6.2836 C.ar      1 <0>        -0.0527
     27 C20        13.3937   -0.6618   -6.4277 C.ar      1 <0>        -0.1095
     28 C21        13.6293    0.4994   -7.0972 C.ar      1 <0>        -0.1218
     29 C22        12.5813    1.2379   -7.6439 C.ar      1 <0>        -0.1275
     30 C23        11.2919    0.8192   -7.5241 C.ar      1 <0>        -0.0932
     31 C24        11.0095   -0.3752   -6.8396 C.ar      1 <0>        -0.0450
     32 C25         9.6913   -0.8424   -6.7004 C.ar      1 <0>        -0.0679
     33 C26         7.7850   -2.6451   -8.3509 C.2       1 <0>         0.5209
     34 O3          8.5486   -3.0232   -9.2230 O.co2     1 <0>        -0.6606
     35 O4          7.1001   -1.6522   -8.5288 O.co2     1 <0>        -0.6818
     36 C27         8.4624   -6.9146   -6.2898 C.2       1 <0>         0.0791
     37 N3          8.5746   -7.5467   -7.4313 N.2       1 <0>        -0.4804
     38 C28         8.9789   -8.8002   -7.4844 C.2       1 <0>         0.0374
     39 C29         9.2725   -9.4025   -6.3037 C.2       1 <0>        -0.2409
     40 S1          8.9397   -8.0699   -5.1627 S.3       1 <0>         0.0923
     41 H4          1.0039    1.9031    0.0027 H         1 <0>         0.0544
     42 H5         -0.5459    1.8868   -0.8726 H         1 <0>         0.0539
     43 H6         -0.5289    1.8773    0.9072 H         1 <0>         0.0520
     44 H7          0.5293   -0.3651    0.8851 H         1 <0>         0.0600
     45 H8         -1.0205   -0.3814    0.0098 H         1 <0>         0.0598
     46 H9          0.1910   -0.1364   -2.1398 H         1 <0>         0.0633
     47 H10         1.7408   -0.1202   -1.2645 H         1 <0>         0.0641
     48 H11         1.2661   -2.3884   -0.3821 H         1 <0>         0.0650
     49 H12        -0.2836   -2.4046   -1.2575 H         1 <0>         0.0695
     50 H13         1.1111   -2.1867   -3.4791 H         1 <0>         0.1098
     51 H14         2.7950   -3.6587   -1.4275 H         1 <0>         0.1111
     52 H15         3.0289   -4.8948   -3.7396 H         1 <0>         0.0769
     53 H16         2.7516   -3.3171   -4.5157 H         1 <0>         0.0741
     54 H17         4.7988   -2.4264   -3.4368 H         1 <0>         0.0954
     55 H18         5.0761   -4.0041   -2.6606 H         1 <0>         0.0927
     56 H19         9.5322   -4.3303   -6.8537 H         1 <0>         0.3464
     57 H20         7.3580   -1.6457   -5.8544 H         1 <0>         0.0984
     58 H21         7.9492   -3.0560   -4.9435 H         1 <0>         0.0504
     59 H22        10.2889   -3.6580   -4.9537 H         1 <0>         0.1117
     60 H23        12.5945   -2.9031   -5.1701 H         1 <0>         0.1236
     61 H24        14.2158   -1.2233   -6.0090 H         1 <0>         0.1217
     62 H25        14.6435    0.8542   -7.2062 H         1 <0>         0.1174
     63 H26        12.7956    2.1563   -8.1702 H         1 <0>         0.1190
     64 H27        10.4899    1.4020   -7.9526 H         1 <0>         0.1274
     65 H28         8.8697   -0.2829   -7.1226 H         1 <0>         0.1375
     66 H29         9.0721   -9.3241   -8.4242 H         1 <0>         0.1705
     67 H30         9.6157  -10.4078   -6.1088 H         1 <0>         0.1931
@<TRIPOS>BOND
     1    1    2 1
     2    1   41 1
     3    1   42 1
     4    1   43 1
     5    2    3 1
     6    2   44 1
     7    2   45 1
     8    3    4 1
     9    3   46 1
    10    3   47 1
    11    4    5 1
    12    4   48 1
    13    4   49 1
    14    5    6 2
    15    5   50 1
    16    6    7 1
    17    6   51 1
    18    7    8 1
    19    7   52 1
    20    7   53 1
    21    8    9 1
    22    8   54 1
    23    8   55 1
    24    9   20 am
    25    9   10 am
    26   10   11 2
    27   10   12 1
    28   12   13 1
    29   12   18 1
    30   12   14 1
    31   14   15 1
    32   14   16 1
    33   14   36 1
    34   16   17 1
    35   16   56 1
    36   17   18 1
    37   17   22 1
    38   17   33 1
    39   18   19 1
    40   18   20 1
    41   20   21 2
    42   22   23 1
    43   22   57 1
    44   22   58 1
    45   23   32 ar
    46   23   24 ar
    47   24   25 ar
    48   24   59 1
    49   25   26 ar
    50   25   60 1
    51   26   31 ar
    52   26   27 ar
    53   27   28 ar
    54   27   61 1
    55   28   29 ar
    56   28   62 1
    57   29   30 ar
    58   29   63 1
    59   30   31 ar
    60   30   64 1
    61   31   32 ar
    62   32   65 1
    63   33   34 2
    64   33   35 1
    65   36   40 1
    66   36   37 2
    67   37   38 1
    68   38   39 2
    69   38   66 1
    70   39   40 1
    71   39   67 1
@<TRIPOS>MOLECULE
ZINC13422768
   43    44     0     0     0
SMALL
USER_CHARGES
4-[(1S)-2-[[(3S)-1,1-dioxothiolan-3-yl]-methyl-amino]-1-methyl-2-oxo-ethoxy]benzene-1,3-dicarboxylic acid
@<TRIPOS>ATOM
      1 C1          4.0783    2.8176   -1.3096 C.3       1 <0>        -0.1855
      2 C2          3.5322    3.0865    0.0941 C.3       1 <0>         0.0610
      3 H1          3.3209    2.1388    0.5895 H         1 <0>         0.0943
      4 C3          4.5545    3.8537    0.8924 C.2       1 <0>         0.5188
      5 O1          4.2803    4.9487    1.3360 O.2       1 <0>        -0.4817
      6 N1          5.7735    3.3230    1.1135 N.am      1 <0>        -0.6096
      7 C4          6.1047    2.0003    0.5777 C.3       1 <0>         0.0649
      8 C5          6.7673    4.0688    1.8896 C.3       1 <0>         0.1365
      9 H2          6.3514    5.0292    2.1941 H         1 <0>         0.1275
     10 C6          7.1693    3.2591    3.1335 C.3       1 <0>        -0.1392
     11 C7          8.4327    3.8768    3.7797 C.3       1 <0>        -0.5727
     12 S1          9.2788    4.6583    2.3458 S.o2      1 <0>         2.3728
     13 O2          9.3378    6.0628    2.5532 O.2       1 <0>        -0.9323
     14 O3         10.4739    3.9417    2.0676 O.2       1 <0>        -0.9412
     15 C8          8.0421    4.2983    1.0283 C.3       1 <0>        -0.5889
     16 O4          2.3297    3.8526   -0.0013 O.3       1 <0>        -0.2408
     17 C9          1.1791    3.1680   -0.2075 C.ar      1 <0>         0.1460
     18 C10         1.2166    1.7966   -0.4287 C.ar      1 <0>        -0.2523
     19 C11         0.0510    1.0963   -0.6397 C.ar      1 <0>        -0.0408
     20 C12        -1.1815    1.7610   -0.6380 C.ar      1 <0>        -0.1732
     21 C13        -1.2318    3.1348   -0.4115 C.ar      1 <0>        -0.0019
     22 C14        -0.0516    3.8441   -0.1983 C.ar      1 <0>        -0.1623
     23 C15        -0.0948    5.2991    0.0365 C.2       1 <0>         0.4941
     24 O5          0.9357    5.9153    0.2226 O.co2     1 <0>        -0.6159
     25 C16        -2.4270    1.0058   -0.8708 C.2       1 <0>         0.4989
     26 O6         -3.4964    1.5825   -0.8693 O.co2     1 <0>        -0.6337
     27 H3          4.9956    2.2332   -1.2368 H         1 <0>         0.0762
     28 H4          3.3389    2.2627   -1.8870 H         1 <0>         0.0800
     29 H5          4.2896    3.7652   -1.8049 H         1 <0>         0.0710
     30 H6          6.5335    2.1088   -0.4185 H         1 <0>         0.0656
     31 H7          6.8269    1.5133    1.2330 H         1 <0>         0.0733
     32 H8          5.2002    1.3948    0.5201 H         1 <0>         0.0830
     33 H9          6.3512    3.2722    3.8537 H         1 <0>         0.1034
     34 H10         7.3779    2.2294    2.8431 H         1 <0>         0.0915
     35 H11         8.1598    4.6260    4.5228 H         1 <0>         0.1420
     36 H12         9.0569    3.1022    4.2253 H         1 <0>         0.1423
     37 H13         8.3090    3.3997    0.4721 H         1 <0>         0.1426
     38 H14         7.9183    5.1507    0.3603 H         1 <0>         0.1475
     39 H15         2.1642    1.2785   -0.4354 H         1 <0>         0.1147
     40 H16         0.0873    0.0307   -0.8117 H         1 <0>         0.1253
     41 H17        -2.1816    3.6487   -0.4053 H         1 <0>         0.1420
     42 O7         -1.2771    5.9454    0.0448 O.co2     1 <0>        -0.7679
     43 O8         -2.3788   -0.3236   -1.0851 O.co2     1 <0>        -0.7750
@<TRIPOS>BOND
     1    1    2 1
     2    1   27 1
     3    1   28 1
     4    1   29 1
     5    2    3 1
     6    2    4 1
     7    2   16 1
     8    4    5 2
     9    4    6 am
    10    6    7 1
    11    6    8 1
    12    7   30 1
    13    7   31 1
    14    7   32 1
    15    8    9 1
    16    8   15 1
    17    8   10 1
    18   10   11 1
    19   10   33 1
    20   10   34 1
    21   11   12 1
    22   11   35 1
    23   11   36 1
    24   12   13 2
    25   12   14 2
    26   12   15 1
    27   15   37 1
    28   15   38 1
    29   16   17 1
    30   17   22 ar
    31   17   18 ar
    32   18   19 ar
    33   18   39 1
    34   19   20 ar
    35   19   40 1
    36   20   21 ar
    37   20   25 1
    38   21   22 ar
    39   21   41 1
    40   22   23 1
    41   23   24 2
    42   23   42 1
    43   25   26 2
    44   25   43 1
@<TRIPOS>MOLECULE
ZINC12338848
   41    43     0     0     0
SMALL
USER_CHARGES
allyl (5R)-5-(4-hydroxyphenyl)-7-methyl-2,4-dioxo-5,8-dihydro-1H-pyrido[5,6-e]pyrimidine-6-carboxylate
@<TRIPOS>ATOM
      1 C1         -2.7128    7.0651   -2.4056 C.3       1 <0>        -0.2292
      2 C2         -2.0415    6.5931   -1.1416 C.2       1 <0>         0.2820
      3 C3         -0.7866    6.1185   -1.1954 C.2       1 <0>        -0.3183
      4 C4         -0.0743    5.6278    0.0320 C.3       1 <0>         0.1239
      5 H1          0.9506    6.0271    0.0240 H         1 <0>         0.0556
      6 C5         -0.7645    6.1056    1.2785 C.ar      1 <0>        -0.4442
      7 C6         -2.0387    6.5861    1.2366 C.ar      1 <0>         0.3935
      8 N1         -2.6419    7.0095    2.3967 N.ar      1 <0>        -0.7515
      9 C7         -1.9792    6.9547    3.5667 C.ar      1 <0>         0.6237
     10 O1         -2.5269    7.3340    4.5837 O.3       1 <0>        -0.6843
     11 N2         -0.7191    6.4868    3.6273 N.ar      1 <0>        -0.7766
     12 C8         -0.0925    6.0597    2.5134 C.ar      1 <0>         0.5302
     13 O2          1.0490    5.6368    2.5755 O.3       1 <0>        -0.6731
     14 N3         -2.7195    6.6534    0.0449 N.pl3     1 <0>        -0.6203
     15 C9         -0.0539    4.1209    0.0237 C.ar      1 <0>        -0.0444
     16 C10         1.1534    3.4471    0.0091 C.ar      1 <0>        -0.0579
     17 C11         1.1748    2.0659    0.0019 C.ar      1 <0>        -0.1667
     18 C12        -0.0164    1.3548    0.0095 C.ar      1 <0>         0.1133
     19 C13        -1.2264    2.0332    0.0189 C.ar      1 <0>        -0.2209
     20 C14        -1.2424    3.4145    0.0313 C.ar      1 <0>        -0.0679
     21 O3          0.0021   -0.0041    0.0020 O.3       1 <0>        -0.5213
     22 C15        -0.1187    6.0805   -2.4410 C.2       1 <0>         0.5374
     23 O4         -0.6816    6.4743   -3.4454 O.2       1 <0>        -0.5527
     24 O5          1.1430    5.6074   -2.5160 O.3       1 <0>        -0.3329
     25 C16         1.7567    5.5982   -3.8064 C.3       1 <0>         0.0911
     26 C17         3.1523    5.0407   -3.6949 C.2       1 <0>        -0.1417
     27 C18         3.5770    4.1592   -4.5659 C.2       1 <0>        -0.1927
     28 H2         -2.0236    6.9434   -3.2542 H         1 <0>         0.1889
     29 H3         -2.9838    8.1262   -2.3026 H         1 <0>         0.0623
     30 H4         -3.6210    6.4702   -2.5825 H         1 <0>         0.0584
     31 H5         -3.8147    6.7562    0.0479 H         1 <0>         0.4144
     32 H6          2.0805    4.0012    0.0036 H         1 <0>         0.1210
     33 H7          2.1181    1.5401   -0.0099 H         1 <0>         0.1112
     34 H8         -2.1551    1.4819    0.0203 H         1 <0>         0.1084
     35 H9         -2.1842    3.9431    0.0428 H         1 <0>         0.1103
     36 H10        -0.9429   -0.5671    0.0080 H         1 <0>         0.4125
     37 H11         1.1648    4.9712   -4.4894 H         1 <0>         0.0648
     38 H12         1.8023    6.6251   -4.1981 H         1 <0>         0.0702
     39 H13         3.8144    5.3740   -2.8821 H         1 <0>         0.1229
     40 H14         4.5957    3.7523   -4.4845 H         1 <0>         0.1041
     41 H15         2.9149    3.8259   -5.3787 H         1 <0>         0.0969
@<TRIPOS>BOND
     1    1    2 1
     2    1   28 1
     3    1   29 1
     4    1   30 1
     5    2   14 1
     6    2    3 2
     7    3    4 1
     8    3   22 1
     9    4    5 1
    10    4    6 1
    11    4   15 1
    12    6   12 ar
    13    6    7 ar
    14    7    8 ar
    15    7   14 1
    16    8    9 ar
    17    9   10 1
    18    9   11 ar
    19   11   12 ar
    20   12   13 1
    21   14   31 1
    22   15   20 ar
    23   15   16 ar
    24   16   17 ar
    25   16   32 1
    26   17   18 ar
    27   17   33 1
    28   18   19 ar
    29   18   21 1
    30   19   20 ar
    31   19   34 1
    32   20   35 1
    33   21   36 1
    34   22   23 2
    35   22   24 1
    36   24   25 1
    37   25   26 1
    38   25   37 1
    39   25   38 1
    40   26   27 2
    41   26   39 1
    42   27   40 1
    43   27   41 1
@<TRIPOS>MOLECULE
ZINC39330386
   38    39     0     0     0
SMALL
USER_CHARGES

@<TRIPOS>ATOM
      1 C1          0.1582    1.8345    0.2619 C.3       1 <0>        -0.1199
      2 C2         -0.1633    0.3628    0.3017 C.2       1 <0>        -0.0554
      3 C3         -0.4307   -0.2641   -0.8326 C.2       1 <0>        -0.1604
      4 C4         -0.7559   -1.7043   -0.8143 C.2       1 <0>         0.1653
      5 N1         -1.1230   -2.2937    0.4020 N.am      1 <0>        -0.6656
      6 C5         -0.8775   -1.6599    1.5593 C.2       1 <0>         0.5417
      7 O1         -1.2439   -2.1754    2.5942 O.2       1 <0>        -0.5212
      8 C6         -0.1632   -0.3429    1.6240 C.3       1 <0>        -0.1446
      9 H1         -0.6565    0.2891    2.3625 H         1 <0>         0.1264
     10 C7          1.2621   -0.5743    2.0551 C.2       1 <0>         0.3544
     11 O2          2.1406   -0.6352    1.2287 O.2       1 <0>        -0.3620
     12 C8          1.5912   -0.7299    3.5175 C.3       1 <0>        -0.1191
     13 C9          3.1098   -0.7859    3.6953 C.3       1 <0>         0.2963
     14 N2          3.6684   -1.8446    2.8450 N.2       1 <0>        -0.8935
     15 C10         4.3390   -2.8150    3.7263 C.3       1 <0>         0.0804
     16 C11         3.7834   -2.5254    5.1347 C.3       1 <0>         0.0835
     17 N3          3.4329   -1.0926    5.0955 N.2       1 <0>        -0.9390
     18 C12         3.7238    0.5609    3.3080 C.3       1 <0>         0.2492
     19 C13         5.1535    0.6434    3.8467 C.3       1 <0>         0.2503
     20 F1          5.9184   -0.3924    3.2997 F         1 <0>        -0.1750
     21 F2          5.7149    1.8749    3.4925 F         1 <0>        -0.2474
     22 F3          3.7429    0.6811    1.9143 F         1 <0>        -0.2030
     23 F4          2.9589    1.5967    3.8550 F         1 <0>        -0.2396
     24 C14        -0.7016   -2.4297   -1.9344 C.2       1 <0>        -0.2667
     25 H2          1.2324    1.9685    0.1344 H         1 <0>         0.0838
     26 H3         -0.3674    2.2988   -0.5725 H         1 <0>         0.0646
     27 H4         -0.1579    2.3008    1.1950 H         1 <0>         0.0674
     28 H5         -0.4116    0.2756   -1.7679 H         1 <0>         0.1362
     29 H6          1.1915    0.1190    4.0721 H         1 <0>         0.0353
     30 H7          1.1471   -1.6514    3.8938 H         1 <0>         0.0624
     31 H8          4.0938   -3.8333    3.4244 H         1 <0>        -0.0595
     32 H9          5.4181   -2.6625    3.7060 H         1 <0>        -0.0603
     33 H10         2.8972   -3.1301    5.3274 H         1 <0>        -0.0705
     34 H11         4.5456   -2.7114    5.8915 H         1 <0>        -0.0417
     35 H12         5.1386    0.5497    4.9325 H         1 <0>         0.1282
     36 H13        -0.4175   -1.9637   -2.8663 H         1 <0>         0.1147
     37 H14        -0.9417   -3.4824   -1.9082 H         1 <0>         0.0983
     38 H15        -1.5559   -3.1617    0.4080 H         1 <0>         0.4059
@<TRIPOS>BOND
     1    1    2 1
     2    1   25 1
     3    1   26 1
     4    1   27 1
     5    2    8 1
     6    2    3 2
     7    3    4 1
     8    3   28 1
     9    4    5 1
    10    4   24 2
    11    5    6 am
    12    5   38 1
    13    6    7 2
    14    6    8 1
    15    8    9 1
    16    8   10 1
    17   10   11 2
    18   10   12 1
    19   12   13 1
    20   12   29 1
    21   12   30 1
    22   13   17 1
    23   13   14 1
    24   13   18 1
    25   14   15 1
    26   15   16 1
    27   15   31 1
    28   15   32 1
    29   16   17 1
    30   16   33 1
    31   16   34 1
    32   18   19 1
    33   18   22 1
    34   18   23 1
    35   19   20 1
    36   19   21 1
    37   19   35 1
    38   24   36 1
    39   24   37 1
@<TRIPOS>MOLECULE
ZINC49047428
   31    32     0     0     0
SMALL
USER_CHARGES

@<TRIPOS>ATOM
      1 C1         -0.0187    1.5258    0.0104 C.3       1 <0>        -0.0977
      2 C2          0.0021   -0.0041    0.0020 C.3       1 <0>        -0.6189
      3 H1          0.5123   -0.3556   -0.8948 H         1 <0>         0.1123
      4 C3         -1.4117   -0.5257    0.0127 C.2       1 <0>         0.5122
      5 O1         -1.7324   -1.4331   -0.7358 O.co2     1 <0>        -0.6892
      6 O2         -2.2349   -0.0402    0.7698 O.co2     1 <0>        -0.6753
      7 S1          0.8794   -0.6050    1.4716 S.o2      1 <0>         2.5623
      8 O3          0.2629   -0.1027    2.6492 O.2       1 <0>        -1.0161
      9 O4          1.1657   -1.9905    1.3383 O.2       1 <0>        -1.0338
     10 N1          2.3579    0.1390    1.4185 N.2       1 <0>        -1.0825
     11 C4          3.3006   -0.1066    2.4214 C.ar      1 <0>         0.3144
     12 C5          3.0013   -0.9780    3.4593 C.ar      1 <0>        -0.2430
     13 C6          3.9344   -1.2199    4.4494 C.ar      1 <0>        -0.0452
     14 C7          5.1677   -0.5955    4.4105 C.ar      1 <0>        -0.2261
     15 C8          5.4746    0.2745    3.3799 C.ar      1 <0>         0.0313
     16 C9          4.5456    0.5186    2.3786 C.ar      1 <0>         0.0080
     17 N2          4.8568    1.3969    1.3281 N.pl3     1 <0>        -0.3557
     18 C10         5.8200    1.2128    0.3707 C.2       1 <0>        -0.0455
     19 C11         5.7800    2.2910   -0.4355 C.2       1 <0>        -0.0525
     20 N3          4.8205    3.1136    0.0132 N.2       1 <0>        -0.5155
     21 C12         4.2564    2.5861    1.0658 C.2       1 <0>         0.2216
     22 Cl1         7.0242    1.0558    3.3357 Cl        1 <0>        -0.0938
     23 H2          1.0039    1.9031    0.0027 H         1 <0>         0.0642
     24 H3         -0.5459    1.8868   -0.8726 H         1 <0>         0.0469
     25 H4         -0.5289    1.8773    0.9072 H         1 <0>         0.0642
     26 H5          2.0389   -1.4669    3.4933 H         1 <0>         0.1164
     27 H6          3.6996   -1.8984    5.2562 H         1 <0>         0.1161
     28 H7          5.8932   -0.7875    5.1872 H         1 <0>         0.1175
     29 H8          6.4840    0.3658    0.2802 H         1 <0>         0.1562
     30 H9          6.4115    2.4635   -1.2945 H         1 <0>         0.1548
     31 H10         3.4493    3.0238    1.6345 H         1 <0>         0.1926
@<TRIPOS>BOND
     1    1    2 1
     2    1   23 1
     3    1   24 1
     4    1   25 1
     5    2    3 1
     6    2    4 1
     7    2    7 1
     8    4    5 2
     9    4    6 1
    10    7    8 2
    11    7    9 2
    12    7   10 1
    13   10   11 1
    14   11   16 ar
    15   11   12 ar
    16   12   13 ar
    17   12   26 1
    18   13   14 ar
    19   13   27 1
    20   14   15 ar
    21   14   28 1
    22   15   16 ar
    23   15   22 1
    24   16   17 1
    25   17   21 1
    26   17   18 1
    27   18   19 2
    28   18   29 1
    29   19   20 1
    30   19   30 1
    31   20   21 2
    32   21   31 1
@<TRIPOS>MOLECULE
ZINC66578280
   39    40     0     0     0
SMALL
USER_CHARGES

@<TRIPOS>ATOM
      1 C1         -0.0187    1.5258    0.0104 C.3       1 <0>        -0.1619
      2 C2          0.0021   -0.0041    0.0020 C.3       1 <0>         0.1275
      3 N1         -1.3723   -0.5112    0.0124 N.pl3     1 <0>        -0.3787
      4 C3         -1.9075   -1.3725   -0.8779 C.2       1 <0>         0.1598
      5 C4         -3.1944   -1.5889   -0.5201 C.2       1 <0>        -0.7302
      6 C5         -3.4546   -0.8340    0.6282 C.2       1 <0>         0.1331
      7 N2         -2.3613   -0.1922    0.9518 N.2       1 <0>        -0.3132
      8 S1         -4.3402   -2.6360   -1.3541 S.o2      1 <0>         2.5932
      9 O1         -5.6384   -2.1614   -1.0243 O.2       1 <0>        -1.0469
     10 O2         -3.8874   -2.7457   -2.6965 O.2       1 <0>        -1.0527
     11 N3         -4.2031   -4.1440   -0.6836 N.2       1 <0>        -0.9941
     12 C6         -4.9954   -5.1858   -1.1492 C.ar      1 <0>         0.3114
     13 C7         -5.8980   -4.9669   -2.1795 C.ar      1 <0>        -0.3413
     14 C8         -6.6876   -6.0059   -2.6433 C.ar      1 <0>         0.1436
     15 C9         -6.5806   -7.2792   -2.0784 C.ar      1 <0>        -0.0390
     16 C10        -5.6884   -7.5110   -1.0551 C.ar      1 <0>        -0.0915
     17 C11        -4.8810   -6.4671   -0.5817 C.ar      1 <0>        -0.1950
     18 C12        -3.9246   -6.7094    0.5045 C.2       1 <0>         0.5310
     19 O3         -3.8273   -7.8260    0.9965 O.co2     1 <0>        -0.7418
     20 O4         -3.2241   -5.7950    0.9185 O.co2     1 <0>        -0.6518
     21 O5         -7.3610   -8.2937   -2.5405 O.3       1 <0>        -0.3273
     22 C13        -7.2010   -9.5703   -1.9186 C.3       1 <0>         0.0376
     23 O6         -7.5699   -5.7859   -3.6512 O.3       1 <0>        -0.3212
     24 C14        -7.6295   -4.4611   -4.1837 C.3       1 <0>         0.0302
     25 H1          1.0039    1.9031    0.0027 H         1 <0>         0.0693
     26 H2         -0.5459    1.8868   -0.8726 H         1 <0>         0.0586
     27 H3         -0.5289    1.8773    0.9072 H         1 <0>         0.0692
     28 H4          0.5123   -0.3556   -0.8948 H         1 <0>         0.0940
     29 H5          0.5293   -0.3651    0.8851 H         1 <0>         0.0832
     30 H6         -1.3997   -1.8104   -1.7246 H         1 <0>         0.1835
     31 H7         -4.3943   -0.7920    1.1590 H         1 <0>         0.1909
     32 H8         -5.9855   -3.9849   -2.6203 H         1 <0>         0.1063
     33 H9         -5.6081   -8.4965   -0.6206 H         1 <0>         0.1232
     34 H10        -7.8804  -10.2870   -2.3800 H         1 <0>         0.0753
     35 H11        -6.1732   -9.9101   -2.0458 H         1 <0>         0.0430
     36 H12        -7.4274   -9.4875   -0.8556 H         1 <0>         0.0432
     37 H13        -7.9080   -3.7641   -3.3933 H         1 <0>         0.0494
     38 H14        -6.6535   -4.1860   -4.5835 H         1 <0>         0.0491
     39 H15        -8.3725   -4.4228   -4.9803 H         1 <0>         0.0814
@<TRIPOS>BOND
     1    1    2 1
     2    1   25 1
     3    1   26 1
     4    1   27 1
     5    2    3 1
     6    2   28 1
     7    2   29 1
     8    3    7 1
     9    3    4 1
    10    4    5 2
    11    4   30 1
    12    5    6 1
    13    5    8 1
    14    6    7 2
    15    6   31 1
    16    8    9 2
    17    8   10 2
    18    8   11 1
    19   11   12 1
    20   12   17 ar
    21   12   13 ar
    22   13   14 ar
    23   13   32 1
    24   14   15 ar
    25   14   23 1
    26   15   16 ar
    27   15   21 1
    28   16   17 ar
    29   16   33 1
    30   17   18 1
    31   18   19 2
    32   18   20 1
    33   21   22 1
    34   22   34 1
    35   22   35 1
    36   22   36 1
    37   23   24 1
    38   24   37 1
    39   24   38 1
    40   24   39 1
@<TRIPOS>MOLECULE
ZINC01221178
   46    51     0     0     0
SMALL
USER_CHARGES
(4-chlorophenyl)-dioxo-BLAHcarboxylic acid
@<TRIPOS>ATOM
      1 C1         -0.5852    5.2821   -3.2491 C.ar      1 <0>        -0.1292
      2 C2         -0.6402    3.9006   -3.2693 C.ar      1 <0>        -0.1210
      3 C3         -0.0765    3.1589   -2.2394 C.ar      1 <0>        -0.0783
      4 C4          0.5306    3.8188   -1.2090 C.ar      1 <0>        -0.0570
      5 C5          0.5858    5.2105   -1.1885 C.ar      1 <0>        -0.1044
      6 C6          0.0339    5.9463   -2.1983 C.ar      1 <0>        -0.1089
      7 C7          1.2946    5.7942    0.0235 C.3       1 <0>         0.0142
      8 C8          0.6004    5.1743    1.2260 C.ar      1 <0>        -0.0916
      9 C9          0.0614    5.8795    2.2642 C.ar      1 <0>        -0.1100
     10 C10        -0.5447    5.1839    3.3022 C.ar      1 <0>        -0.1292
     11 C11        -0.5997    3.8024    3.2817 C.ar      1 <0>        -0.1187
     12 C12        -0.0493    3.0921    2.2228 C.ar      1 <0>        -0.0808
     13 C13         0.5520    3.7633    1.2188 C.ar      1 <0>        -0.0464
     14 C14         1.1898    3.1455   -0.0156 C.3       1 <0>        -0.0094
     15 C15         2.6505    3.6444   -0.0172 C.3       1 <0>        -0.0944
     16 H1          3.1594    3.1947    0.8481 H         1 <0>         0.1356
     17 C16         2.7113    5.1817    0.0057 C.3       1 <0>        -0.1155
     18 H2          3.2528    5.5639    0.8836 H         1 <0>         0.1355
     19 C17         3.3747    5.5319   -1.3089 C.2       1 <0>         0.5454
     20 O1          3.6181    6.6546   -1.6961 O.2       1 <0>        -0.4792
     21 N1          3.6498    4.4040   -1.9760 N.am      1 <0>        -0.5338
     22 C18         3.2854    3.2821   -1.3425 C.2       1 <0>         0.5305
     23 O2          3.4398    2.1557   -1.7631 O.2       1 <0>        -0.4142
     24 C19         4.2692    4.3982   -3.2342 C.ar      1 <0>         0.1298
     25 C20         5.5532    3.8896   -3.3746 C.ar      1 <0>        -0.0894
     26 C21         6.1590    3.8797   -4.6158 C.ar      1 <0>        -0.0996
     27 C22         5.4913    4.3863   -5.7169 C.ar      1 <0>        -0.0303
     28 C23         4.2136    4.8995   -5.5782 C.ar      1 <0>        -0.0994
     29 C24         3.6015    4.9063   -4.3402 C.ar      1 <0>        -0.0854
     30 Cl1         6.2578    4.3785   -7.2744 Cl        1 <0>        -0.0696
     31 C25         1.0789    1.6430   -0.0490 C.2       1 <0>         0.4830
     32 O3          2.0779    0.9638   -0.0734 O.co2     1 <0>        -0.5997
     33 O4         -0.1298    1.0591   -0.0516 O.co2     1 <0>        -0.7467
     34 H3         -1.0264    5.8483   -4.0560 H         1 <0>         0.1183
     35 H4         -1.1244    3.3950   -4.0917 H         1 <0>         0.1197
     36 H5         -0.1177    2.0798   -2.2527 H         1 <0>         0.1391
     37 H6          0.0778    7.0253   -2.1797 H         1 <0>         0.1220
     38 H7          1.2863    6.8940    0.0400 H         1 <0>         0.1168
     39 H8          0.1060    6.9585    2.2778 H         1 <0>         0.1219
     40 H9         -0.9764    5.7256    4.1308 H         1 <0>         0.1177
     41 H10        -1.0734    3.2723    4.0946 H         1 <0>         0.1198
     42 H11        -0.0908    2.0130    2.2042 H         1 <0>         0.1383
     43 H12         6.0765    3.4982   -2.5147 H         1 <0>         0.1370
     44 H13         7.1562    3.4800   -4.7263 H         1 <0>         0.1409
     45 H14         3.6946    5.2947   -6.4390 H         1 <0>         0.1402
     46 H15         2.6044    5.3070   -4.2324 H         1 <0>         0.1363
@<TRIPOS>BOND
     1    1    6 ar
     2    1    2 ar
     3    1   34 1
     4    2    3 ar
     5    2   35 1
     6    3    4 ar
     7    3   36 1
     8    4   14 1
     9    4    5 ar
    10    5    6 ar
    11    5    7 1
    12    6   37 1
    13    7   17 1
    14    7    8 1
    15    7   38 1
    16    8   13 ar
    17    8    9 ar
    18    9   10 ar
    19    9   39 1
    20   10   11 ar
    21   10   40 1
    22   11   12 ar
    23   11   41 1
    24   12   13 ar
    25   12   42 1
    26   13   14 1
    27   14   15 1
    28   14   31 1
    29   15   16 1
    30   15   22 1
    31   15   17 1
    32   17   18 1
    33   17   19 1
    34   19   20 2
    35   19   21 am
    36   21   22 am
    37   21   24 1
    38   22   23 2
    39   24   29 ar
    40   24   25 ar
    41   25   26 ar
    42   25   43 1
    43   26   27 ar
    44   26   44 1
    45   27   28 ar
    46   27   30 1
    47   28   29 ar
    48   28   45 1
    49   29   46 1
    50   31   32 2
    51   31   33 1
@<TRIPOS>MOLECULE
ZINC08733813
   45    49     0     0     0
SMALL
USER_CHARGES

@<TRIPOS>ATOM
      1 C1         -0.0166    1.3728    0.0096 C.ar      1 <0>        -0.1126
      2 C2          1.1673    2.0992    0.0022 C.ar      1 <0>        -0.1366
      3 C3          2.3858    1.4571   -0.0128 C.ar      1 <0>        -0.0701
      4 C4          2.4283    0.0636   -0.0207 C.ar      1 <0>        -0.1247
      5 C5          1.2247   -0.6761   -0.0132 C.ar      1 <0>        -0.0652
      6 C6          0.0021   -0.0041    0.0020 C.ar      1 <0>        -0.0855
      7 C7          1.3018   -2.1407   -0.0222 C.2       1 <0>         0.3994
      8 O1          0.1641   -2.8809   -0.0158 O.3       1 <0>        -0.7048
      9 N1          2.4642   -2.7308   -0.0369 N.2       1 <0>        -0.4085
     10 N2          3.6666   -2.0232   -0.0445 N.am      1 <0>        -0.3927
     11 C8          3.6978   -0.6746   -0.0372 C.2       1 <0>         0.5157
     12 O2          4.7609   -0.0792   -0.0437 O.2       1 <0>        -0.5788
     13 C9          4.9298   -2.7650   -0.0605 C.3       1 <0>         0.1302
     14 C10         5.3764   -3.0270    1.3547 C.2       1 <0>         0.5125
     15 O3          4.7056   -2.6328    2.2851 O.2       1 <0>        -0.5079
     16 N3          6.5213   -3.6992    1.5865 N.am      1 <0>        -0.6149
     17 C11         7.3456   -4.1764    0.4662 C.3       1 <0>         0.1107
     18 C12         7.3568   -5.7126    0.4954 C.3       1 <0>        -0.0612
     19 C13         7.5362   -6.1633    1.9086 C.2       1 <0>        -0.1278
     20 C14         7.3700   -5.4353    3.0460 C.2       1 <0>        -0.1292
     21 C15         7.5933   -6.0983    4.2517 C.2       1 <0>        -0.1345
     22 C16         7.9622   -7.3997    4.2498 C.2       1 <0>        -0.1783
     23 S1          8.0125   -7.7654    2.5019 S.3       1 <0>         0.0435
     24 C17         6.9664   -3.9603    2.9621 C.3       1 <0>         0.2907
     25 C18         8.1476   -3.0842    3.2912 C.2       1 <0>        -0.1350
     26 C19         8.4322   -2.4332    4.4455 C.2       1 <0>        -0.1503
     27 C20         9.5874   -1.6780    4.5219 C.2       1 <0>        -0.1524
     28 C21        10.4014   -1.6107    3.4402 C.2       1 <0>        -0.1858
     29 S2          9.5392   -2.6410    2.2645 S.3       1 <0>         0.0494
     30 H1         -0.9625    1.8938    0.0259 H         1 <0>         0.1211
     31 H2          1.1321    3.1786    0.0079 H         1 <0>         0.1215
     32 H3          3.3018    2.0291   -0.0189 H         1 <0>         0.1298
     33 H4         -0.9237   -0.5602    0.0082 H         1 <0>         0.1356
     34 H5          4.7875   -3.7137   -0.5781 H         1 <0>         0.1148
     35 H6          5.6888   -2.1788   -0.5785 H         1 <0>         0.1123
     36 H7          6.9209   -3.8300   -0.4761 H         1 <0>         0.1049
     37 H8          8.3629   -3.7995    0.5718 H         1 <0>         0.0779
     38 H9          6.4117   -6.0926    0.1076 H         1 <0>         0.0980
     39 H10         8.1806   -6.0839   -0.1141 H         1 <0>         0.0969
     40 H11         7.4721   -5.5728    5.1874 H         1 <0>         0.1317
     41 H12         8.1720   -8.0488    5.0871 H         1 <0>         0.1863
     42 H13         6.1518   -3.7595    3.6580 H         1 <0>         0.1279
     43 H14         7.7662   -2.5033    5.2928 H         1 <0>         0.1324
     44 H15         9.8374   -1.1491    5.4297 H         1 <0>         0.1313
     45 H16        11.3322   -1.0758    3.3217 H         1 <0>         0.1825
@<TRIPOS>BOND
     1    1    6 ar
     2    1    2 ar
     3    1   30 1
     4    2    3 ar
     5    2   31 1
     6    3    4 ar
     7    3   32 1
     8    4   11 1
     9    4    5 ar
    10    5    6 ar
    11    5    7 1
    12    6   33 1
    13    7    8 1
    14    7    9 2
    15    9   10 1
    16   10   11 am
    17   10   13 1
    18   11   12 2
    19   13   14 1
    20   13   34 1
    21   13   35 1
    22   14   15 2
    23   14   16 am
    24   16   24 1
    25   16   17 1
    26   17   18 1
    27   17   36 1
    28   17   37 1
    29   18   19 1
    30   18   38 1
    31   18   39 1
    32   19   23 1
    33   19   20 2
    34   20   21 1
    35   20   24 1
    36   21   22 2
    37   21   40 1
    38   22   23 1
    39   22   41 1
    40   24   25 1
    41   24   42 1
    42   25   29 1
    43   25   26 2
    44   26   27 1
    45   26   43 1
    46   27   28 2
    47   27   44 1
    48   28   29 1
    49   28   45 1
@<TRIPOS>MOLECULE
ZINC41065726
   29    30     0     0     0
SMALL
USER_CHARGES

@<TRIPOS>ATOM
      1 C1         -0.0173    1.4248    0.0099 C.3       1 <0>         0.0340
      2 O1          0.0021   -0.0041    0.0020 O.3       1 <0>        -0.3180
      3 C2         -1.2014   -0.6380    0.0101 C.ar      1 <0>         0.0266
      4 C3         -2.3744    0.1017    0.0196 C.ar      1 <0>        -0.1473
      5 C4         -3.5968   -0.5411    0.0278 C.ar      1 <0>        -0.1392
      6 C5         -3.6518   -1.9287    0.0270 C.ar      1 <0>         0.2653
      7 C6         -2.4775   -2.6694    0.0176 C.ar      1 <0>        -0.2251
      8 C7         -1.2549   -2.0249    0.0032 C.ar      1 <0>         0.0022
      9 Cl1         0.2139   -2.9501   -0.0164 Cl        1 <0>        -0.0891
     10 N1         -4.8902   -2.5802    0.0363 N.2       1 <0>        -1.0743
     11 S1         -4.9554   -4.2349    0.0354 S.o2      1 <0>         2.5971
     12 O2         -4.4308   -4.6613   -1.2145 O.2       1 <0>        -1.0194
     13 O3         -4.4111   -4.6635    1.2761 O.2       1 <0>        -1.0035
     14 C8         -6.6577   -4.6893    0.0485 C.ar      1 <0>        -0.6547
     15 C9         -7.2126   -5.3624   -1.0284 C.ar      1 <0>         0.0538
     16 C10        -8.5572   -5.7006   -0.9743 C.ar      1 <0>        -0.1750
     17 C11        -9.2941   -5.3573    0.1444 C.ar      1 <0>         0.1845
     18 N2         -8.7331   -4.7162    1.1510 N.ar      1 <0>        -0.4853
     19 C12        -7.4560   -4.3837    1.1364 C.ar      1 <0>         0.2765
     20 Cl2        -6.7715   -3.5471    2.4949 Cl        1 <0>         0.0255
     21 Br1        -9.3721   -6.6189   -2.4126 Br        1 <0>        -0.0243
     22 H1          1.0053    1.8021    0.0021 H         1 <0>         0.0882
     23 H2         -0.5445    1.7859   -0.8732 H         1 <0>         0.0473
     24 H3         -0.5275    1.7763    0.9067 H         1 <0>         0.0474
     25 H4         -2.3319    1.1808    0.0208 H         1 <0>         0.1225
     26 H5         -4.5100    0.0355    0.0351 H         1 <0>         0.1235
     27 H6         -2.5194   -3.7485    0.0173 H         1 <0>         0.1147
     28 H7         -6.6128   -5.6174   -1.8896 H         1 <0>         0.1686
     29 H8        -10.3412   -5.6170    0.1941 H         1 <0>         0.1774
@<TRIPOS>BOND
     1    1    2 1
     2    1   22 1
     3    1   23 1
     4    1   24 1
     5    2    3 1
     6    3    8 ar
     7    3    4 ar
     8    4    5 ar
     9    4   25 1
    10    5    6 ar
    11    5   26 1
    12    6    7 ar
    13    6   10 1
    14    7    8 ar
    15    7   27 1
    16    8    9 1
    17   10   11 1
    18   11   12 2
    19   11   13 2
    20   11   14 1
    21   14   19 ar
    22   14   15 ar
    23   15   16 ar
    24   15   28 1
    25   16   17 ar
    26   16   21 1
    27   17   18 ar
    28   17   29 1
    29   18   19 ar
    30   19   20 1
@<TRIPOS>MOLECULE
ZINC33553105
   44    47     0     0     0
SMALL
USER_CHARGES

@<TRIPOS>ATOM
      1 C1         -0.0185    1.5027    0.0156 C.3       1 <0>        -0.1221
      2 C2          0.0019   -0.0041    0.0052 C.ar      1 <0>        -0.0533
      3 C3         -1.1821   -0.7110    0.1085 C.ar      1 <0>        -0.0963
      4 C4         -1.1668   -2.0919    0.0997 C.ar      1 <0>        -0.0725
      5 C5          0.0391   -2.7714   -0.0134 C.ar      1 <0>         0.1047
      6 C6          1.2266   -2.0601   -0.1175 C.ar      1 <0>        -0.0708
      7 C7          1.2049   -0.6777   -0.1134 C.ar      1 <0>        -0.0287
      8 Cl1         2.6883    0.2136   -0.2505 Cl        1 <0>        -0.0554
      9 N1          0.0572   -4.1723   -0.0221 N.am      1 <0>        -0.4800
     10 C8          0.1672   -4.8231    1.1240 C.2       1 <0>         0.5234
     11 O1          0.2529   -4.2400    2.1870 O.2       1 <0>        -0.3852
     12 C9          0.1798   -6.3087    1.0401 C.2       1 <0>        -0.1807
     13 C10         0.2815   -7.2474    2.0487 C.2       1 <0>         0.0715
     14 C11         0.2950   -8.7186    1.9101 C.ar      1 <0>        -0.1733
     15 C12         0.2168   -9.5740    0.8142 C.ar      1 <0>        -0.0242
     16 C13         0.2567  -10.9397    1.0083 C.ar      1 <0>        -0.1672
     17 C14         0.3742  -11.4562    2.2882 C.ar      1 <0>        -0.0447
     18 C15         0.4525  -10.6168    3.3815 C.ar      1 <0>        -0.1572
     19 C16         0.4140   -9.2381    3.2073 C.ar      1 <0>         0.2143
     20 N2          0.4733   -8.1895    4.1182 N.am      1 <0>        -0.5211
     21 C17         0.4068   -6.9985    3.4992 C.2       1 <0>         0.5527
     22 O2          0.4406   -5.9083    4.0383 O.2       1 <0>        -0.4004
     23 C18         0.5992   -8.3609    5.5677 C.3       1 <0>         0.0666
     24 H1          0.6377   -9.4239    5.8059 H         1 <0>         0.0931
     25 C19         1.8825   -7.6830    6.0518 C.3       1 <0>        -0.1461
     26 C20        -0.5885   -7.7353    6.2526 C.2       1 <0>         0.4926
     27 O3         -0.7747   -7.9232    7.4428 O.co2     1 <0>        -0.6874
     28 O4         -1.3633   -7.0414    5.6164 O.co2     1 <0>        -0.6671
     29 S1          0.0270   -6.5441   -0.7254 S.3       1 <0>         0.0964
     30 C21        -0.0434   -4.8238   -1.1978 C.2       1 <0>         0.2804
     31 S2         -0.1990   -4.1605   -2.7684 S.2       1 <0>        -0.3331
     32 H2         -0.1210    1.8718   -1.0049 H         1 <0>         0.0811
     33 H3         -0.8604    1.8506    0.6141 H         1 <0>         0.0758
     34 H4          0.9113    1.8757    0.4452 H         1 <0>         0.0765
     35 H5         -2.1198   -0.1826    0.1965 H         1 <0>         0.1453
     36 H6         -2.0920   -2.6430    0.1812 H         1 <0>         0.1355
     37 H7          2.1658   -2.5858   -0.2056 H         1 <0>         0.1376
     38 H8          0.1248   -9.1704   -0.1833 H         1 <0>         0.1266
     39 H9          0.1959  -11.6067    0.1611 H         1 <0>         0.1338
     40 H10         0.4044  -12.5261    2.4323 H         1 <0>         0.1351
     41 H11         0.5435  -11.0321    4.3743 H         1 <0>         0.1344
     42 H12         1.8440   -6.6201    5.8137 H         1 <0>         0.0658
     43 H13         1.9762   -7.8106    7.1303 H         1 <0>         0.0773
     44 H14         2.7416   -8.1355    5.5565 H         1 <0>         0.0462
@<TRIPOS>BOND
     1    1    2 1
     2    1   32 1
     3    1   33 1
     4    1   34 1
     5    2    7 ar
     6    2    3 ar
     7    3    4 ar
     8    3   35 1
     9    4    5 ar
    10    4   36 1
    11    5    6 ar
    12    5    9 1
    13    6    7 ar
    14    6   37 1
    15    7    8 1
    16    9   30 1
    17    9   10 am
    18   10   11 2
    19   10   12 1
    20   12   13 2
    21   12   29 1
    22   13   21 1
    23   13   14 1
    24   14   19 ar
    25   14   15 ar
    26   15   16 ar
    27   15   38 1
    28   16   17 ar
    29   16   39 1
    30   17   18 ar
    31   17   40 1
    32   18   19 ar
    33   18   41 1
    34   19   20 1
    35   20   21 am
    36   20   23 1
    37   21   22 2
    38   23   24 1
    39   23   25 1
    40   23   26 1
    41   25   42 1
    42   25   43 1
    43   25   44 1
    44   26   27 2
    45   26   28 1
    46   29   30 1
    47   30   31 2
@<TRIPOS>MOLECULE
ZINC13371876
   50    53     0     0     0
SMALL
USER_CHARGES

@<TRIPOS>ATOM
      1 C1          1.3818   -0.2756    0.1899 C.3       1 <0>        -0.1181
      2 C2          0.5800   -1.5105    0.5111 C.ar      1 <0>        -0.0701
      3 C3          0.4275   -2.5022   -0.4384 C.ar      1 <0>        -0.1177
      4 C4         -0.3076   -3.6356   -0.1443 C.ar      1 <0>        -0.1087
      5 C5         -0.8928   -3.7802    1.1005 C.ar      1 <0>        -0.1190
      6 C6         -0.7443   -2.7921    2.0537 C.ar      1 <0>        -0.0997
      7 C7         -0.0013   -1.6553    1.7635 C.ar      1 <0>         0.1187
      8 N1          0.1564   -0.6538    2.7307 N.pl3     1 <0>        -0.3966
      9 C8         -0.6899    0.4082    2.8998 C.2       1 <0>        -0.0238
     10 C9         -0.2463    1.1719    3.9106 C.2       1 <0>        -0.0457
     11 C10         0.9789    0.5289    4.4105 C.2       1 <0>        -0.1713
     12 C11         1.1582   -0.6041    3.6277 C.2       1 <0>         0.0766
     13 C12         2.2802   -1.6017    3.7580 C.3       1 <0>        -0.0866
     14 C13         1.8009    0.9704    5.4718 C.2       1 <0>         0.1111
     15 C14         1.2264    1.4413    6.6460 C.2       1 <0>        -0.2742
     16 C15        -0.2077    1.2740    6.9199 C.2       1 <0>         0.4971
     17 O1         -1.0123    0.6531    6.0316 O.3       1 <0>        -0.6119
     18 N2         -0.6920    1.7454    8.0570 N.2       1 <0>        -0.6675
     19 C16         0.0772    2.3610    8.9508 C.2       1 <0>         0.6674
     20 O2         -0.4422    2.7675    9.9752 O.2       1 <0>        -0.5720
     21 N3          1.3934    2.5582    8.7860 N.am      1 <0>        -0.5531
     22 C17         2.0295    2.1258    7.6761 C.2       1 <0>         0.5676
     23 O3          3.2250    2.2999    7.5285 O.2       1 <0>        -0.5282
     24 C18         2.1222    3.2185    9.7853 C.ar      1 <0>         0.1501
     25 C19         2.3723    4.5799    9.6785 C.ar      1 <0>        -0.0751
     26 C20         3.0900    5.2287   10.6642 C.ar      1 <0>        -0.1450
     27 C21         3.5600    4.5222   11.7584 C.ar      1 <0>         0.0911
     28 C22         3.3116    3.1642   11.8667 C.ar      1 <0>        -0.1450
     29 C23         2.5897    2.5129   10.8857 C.ar      1 <0>        -0.0730
     30 F1          4.2622    5.1584   12.7214 F         1 <0>        -0.1437
     31 C24        -1.9252    0.6781    2.0799 C.3       1 <0>        -0.0717
     32 H1          2.4263   -0.4417    0.4539 H         1 <0>         0.0730
     33 H2          1.3063   -0.0604   -0.8760 H         1 <0>         0.0680
     34 H3          0.9929    0.5684    0.7594 H         1 <0>         0.0747
     35 H4          0.8826   -2.3918   -1.4116 H         1 <0>         0.1277
     36 H5         -0.4255   -4.4096   -0.8883 H         1 <0>         0.1258
     37 H6         -1.4667   -4.6665    1.3271 H         1 <0>         0.1284
     38 H7         -1.2017   -2.9054    3.0255 H         1 <0>         0.1305
     39 H8         -0.6988    2.0791    4.2828 H         1 <0>         0.1387
     40 H9          3.1151   -1.2937    3.1287 H         1 <0>         0.0727
     41 H10         2.6062   -1.6482    4.7971 H         1 <0>         0.0812
     42 H11         1.9307   -2.5848    3.4425 H         1 <0>         0.0635
     43 H12         2.8758    0.9418    5.3702 H         1 <0>         0.1260
     44 H13         2.0062    5.1312    8.8251 H         1 <0>         0.1315
     45 H14         3.2850    6.2877   10.5812 H         1 <0>         0.1372
     46 H15         3.6793    2.6147   12.7207 H         1 <0>         0.1372
     47 H16         2.3924    1.4547   10.9727 H         1 <0>         0.1318
     48 H17        -2.7830    0.1916    2.5443 H         1 <0>         0.0643
     49 H18        -2.1003    1.7528    2.0296 H         1 <0>         0.0739
     50 H19        -1.7859    0.2852    1.0728 H         1 <0>         0.0520
@<TRIPOS>BOND
     1    1    2 1
     2    1   32 1
     3    1   33 1
     4    1   34 1
     5    2    7 ar
     6    2    3 ar
     7    3    4 ar
     8    3   35 1
     9    4    5 ar
    10    4   36 1
    11    5    6 ar
    12    5   37 1
    13    6    7 ar
    14    6   38 1
    15    7    8 1
    16    8   12 1
    17    8    9 1
    18    9   10 2
    19    9   31 1
    20   10   11 1
    21   10   39 1
    22   11   12 2
    23   11   14 1
    24   12   13 1
    25   13   40 1
    26   13   41 1
    27   13   42 1
    28   14   15 2
    29   14   43 1
    30   15   22 1
    31   15   16 1
    32   16   17 1
    33   16   18 2
    34   18   19 1
    35   19   20 2
    36   19   21 am
    37   21   22 am
    38   21   24 1
    39   22   23 2
    40   24   29 ar
    41   24   25 ar
    42   25   26 ar
    43   25   44 1
    44   26   27 ar
    45   26   45 1
    46   27   28 ar
    47   27   30 1
    48   28   29 ar
    49   28   46 1
    50   29   47 1
    51   31   48 1
    52   31   49 1
    53   31   50 1
@<TRIPOS>MOLECULE
ZINC02296979
   38    40     0     0     0
SMALL
USER_CHARGES
2-[5-(1-acetyl-5-bromo-2-oxo-indolin-3-ylidene)-4-oxo-2-thioxo-thiazolidin-3-yl]butanedioic acid
@<TRIPOS>ATOM
      1 C1         -1.4597   -5.1900   -0.2748 C.3       1 <0>        -0.1834
      2 C2         -2.5484   -4.1585   -0.1279 C.2       1 <0>         0.5293
      3 O1         -3.7089   -4.5052   -0.0762 O.2       1 <0>        -0.4933
      4 N1         -2.2320   -2.8505   -0.0541 N.am      1 <0>        -0.5094
      5 C3         -3.1636   -1.8222    0.0821 C.ar      1 <0>         0.1324
      6 C4         -4.5498   -1.8377    0.1735 C.ar      1 <0>        -0.1078
      7 C5         -5.2497   -0.6546    0.3045 C.ar      1 <0>        -0.0605
      8 C6         -4.5827    0.5593    0.3475 C.ar      1 <0>        -0.1001
      9 C7         -3.2050    0.5951    0.2586 C.ar      1 <0>        -0.0302
     10 C8         -2.4912   -0.5928    0.1258 C.ar      1 <0>        -0.0728
     11 C9         -1.0499   -0.8996    0.0076 C.2       1 <0>        -0.0671
     12 C10         0.0021   -0.0041    0.0020 C.2       1 <0>        -0.0537
     13 C11        -0.0177    1.4833   -0.0489 C.2       1 <0>         0.5511
     14 O2         -1.0580    2.1095   -0.0999 O.2       1 <0>        -0.4194
     15 N2          1.1598    2.0855   -0.0412 N.am      1 <0>        -0.4674
     16 C12         2.3109    1.3861    0.0100 C.2       1 <0>         0.2839
     17 S1          3.9152    1.9834    0.0286 S.2       1 <0>        -0.2601
     18 S2          1.7622   -0.3123    0.0545 S.3       1 <0>         0.0666
     19 C13         1.2144    3.5487   -0.0895 C.3       1 <0>         0.0903
     20 H1          0.2012    3.9490   -0.1273 H         1 <0>         0.1174
     21 C14         1.9837    3.9895   -1.3364 C.3       1 <0>        -0.1705
     22 C15         1.2206    3.5780   -2.5691 C.2       1 <0>         0.4615
     23 O3          0.1693    2.9924   -2.4613 O.co2     1 <0>        -0.6403
     24 C16         1.9134    4.0662    1.1412 C.2       1 <0>         0.4771
     25 O4          2.3239    3.2923    1.9732 O.co2     1 <0>        -0.6246
     26 C17        -0.9783   -2.3694   -0.1095 C.2       1 <0>         0.5741
     27 O5          0.0363   -3.0287   -0.2318 O.2       1 <0>        -0.4449
     28 Br1        -5.5597    2.1681    0.5286 Br        1 <0>        -0.0393
     29 H2         -1.1295   -5.5128    0.7126 H         1 <0>         0.1052
     30 H3         -1.8436   -6.0473   -0.8278 H         1 <0>         0.0982
     31 H4         -0.6185   -4.7560   -0.8153 H         1 <0>         0.1149
     32 H5         -5.0813   -2.7774    0.1416 H         1 <0>         0.1508
     33 H6         -6.3272   -0.6755    0.3746 H         1 <0>         0.1429
     34 H7         -2.6837    1.5404    0.2916 H         1 <0>         0.1845
     35 H8          2.1012    5.0731   -1.3266 H         1 <0>         0.0961
     36 H9          2.9662    3.5175   -1.3428 H         1 <0>         0.0948
     37 O6          1.7089    3.8622   -3.7867 O.co2     1 <0>        -0.7781
     38 O7          2.0800    5.3870    1.3130 O.co2     1 <0>        -0.7482
@<TRIPOS>BOND
     1    1    2 1
     2    1   29 1
     3    1   30 1
     4    1   31 1
     5    2    3 2
     6    2    4 am
     7    4   26 am
     8    4    5 1
     9    5   10 ar
    10    5    6 ar
    11    6    7 ar
    12    6   32 1
    13    7    8 ar
    14    7   33 1
    15    8    9 ar
    16    8   28 1
    17    9   10 ar
    18    9   34 1
    19   10   11 1
    20   11   12 2
    21   11   26 1
    22   12   18 1
    23   12   13 1
    24   13   14 2
    25   13   15 am
    26   15   16 1
    27   15   19 1
    28   16   17 2
    29   16   18 1
    30   19   20 1
    31   19   21 1
    32   19   24 1
    33   21   22 1
    34   21   35 1
    35   21   36 1
    36   22   23 2
    37   22   37 1
    38   24   25 2
    39   24   38 1
    40   26   27 2
@<TRIPOS>MOLECULE
ZINC19819409
   40    42     0     0     0
SMALL
USER_CHARGES
4-chloro-3-[(1-methylsulfonylindolin-5-yl)sulfamoyl]benzoic acid
@<TRIPOS>ATOM
      1 C1          0.7461    9.7293    2.9581 C.3       1 <0>        -0.6782
      2 S1          1.9964    8.5472    2.3836 S.o2      1 <0>         2.6136
      3 O1          3.2702    8.8849    2.9152 O.2       1 <0>        -0.9610
      4 O2          1.8340    8.2998    0.9937 O.2       1 <0>        -0.9332
      5 N1          1.5982    7.1167    3.1167 N.pl3     1 <0>        -0.9346
      6 C2          2.0941    6.6757    4.4231 C.3       1 <0>         0.1213
      7 C3          1.4441    5.3027    4.6590 C.3       1 <0>        -0.0730
      8 C4          0.6013    5.0632    3.4263 C.ar      1 <0>        -0.1064
      9 C5          0.7388    6.1518    2.5795 C.ar      1 <0>         0.0656
     10 C6          0.0487    6.1610    1.3660 C.ar      1 <0>        -0.1137
     11 C7         -0.7590    5.1004    1.0154 C.ar      1 <0>        -0.1834
     12 C8         -0.8921    4.0133    1.8686 C.ar      1 <0>         0.2237
     13 C9         -0.2122    4.0022    3.0791 C.ar      1 <0>        -0.1213
     14 N2         -1.7124    2.9361    1.5127 N.2       1 <0>        -1.0639
     15 S2         -1.6225    2.2952   -0.0116 S.o2      1 <0>         2.5919
     16 O3         -1.7657    3.3805   -0.9176 O.2       1 <0>        -1.0398
     17 O4         -2.4878    1.1682   -0.0300 O.2       1 <0>        -0.9937
     18 C10         0.0141    1.6769   -0.2211 C.ar      1 <0>        -0.6680
     19 C11         0.8450    2.2365   -1.1688 C.ar      1 <0>         0.0126
     20 C12         2.1437    1.7491   -1.3297 C.ar      1 <0>        -0.1391
     21 C13         2.5929    0.6968   -0.5284 C.ar      1 <0>        -0.0375
     22 C14         1.7528    0.1458    0.4155 C.ar      1 <0>        -0.1589
     23 C15         0.4654    0.6337    0.5703 C.ar      1 <0>         0.0551
     24 Cl1        -0.5866   -0.0655    1.7612 Cl        1 <0>        -0.0606
     25 C16         3.0387    2.3442   -2.3423 C.2       1 <0>         0.4953
     26 O5          2.6457    3.2595   -3.0376 O.co2     1 <0>        -0.6249
     27 O6          4.2911    1.8719   -2.4952 O.co2     1 <0>        -0.7639
     28 H1         -0.2346    9.4577    2.5404 H         1 <0>         0.1327
     29 H2          1.0186   10.7418    2.6255 H         1 <0>         0.1250
     30 H3          0.6962    9.7052    4.0567 H         1 <0>         0.1241
     31 H4          3.1913    6.6036    4.3935 H         1 <0>         0.0771
     32 H5          1.7950    7.4021    5.1931 H         1 <0>         0.0653
     33 H6          2.2288    4.5403    4.7729 H         1 <0>         0.0809
     34 H7          0.8324    5.3387    5.5725 H         1 <0>         0.0782
     35 H8          0.1486    7.0037    0.6980 H         1 <0>         0.1244
     36 H9         -1.2893    5.1150    0.0746 H         1 <0>         0.1463
     37 H10        -0.3160    3.1608    3.7481 H         1 <0>         0.1142
     38 H11         0.4921    3.0501   -1.7851 H         1 <0>         0.1463
     39 H12         3.5962    0.3154   -0.6484 H         1 <0>         0.1362
     40 H13         2.0989   -0.6679    1.0356 H         1 <0>         0.1251
@<TRIPOS>BOND
     1    1    2 1
     2    1   28 1
     3    1   29 1
     4    1   30 1
     5    2    3 2
     6    2    4 2
     7    2    5 1
     8    5    9 1
     9    5    6 1
    10    6    7 1
    11    6   31 1
    12    6   32 1
    13    7    8 1
    14    7   33 1
    15    7   34 1
    16    8   13 ar
    17    8    9 ar
    18    9   10 ar
    19   10   11 ar
    20   10   35 1
    21   11   12 ar
    22   11   36 1
    23   12   13 ar
    24   12   14 1
    25   13   37 1
    26   14   15 1
    27   15   16 2
    28   15   17 2
    29   15   18 1
    30   18   23 ar
    31   18   19 ar
    32   19   20 ar
    33   19   38 1
    34   20   21 ar
    35   20   25 1
    36   21   22 ar
    37   21   39 1
    38   22   23 ar
    39   22   40 1
    40   23   24 1
    41   25   26 2
    42   25   27 1
@<TRIPOS>MOLECULE
ZINC13915055
   50    53     0     0     0
SMALL
USER_CHARGES
3-[4-[(Z)-[(5S)-1-(3-carboxyphenyl)-5-hydroxy-3-methyl-5H-pyrazol-4-ylidene]methyl]-3-methyl-5-oxo-2H-pyrazol-1-yl]benzoic acid
@<TRIPOS>ATOM
      1 C1         -3.8661    7.2653   -1.9393 C.3       1 <0>        -0.0601
      2 C2         -3.0098    7.2014   -0.7008 C.2       1 <0>         0.1285
      3 C3         -2.9159    6.1300    0.1600 C.2       1 <0>        -0.4449
      4 C4         -1.9732    6.5219    1.2196 C.2       1 <0>         0.5004
      5 O1         -1.6289    5.8459    2.1713 O.3       1 <0>        -0.6079
      6 N1         -1.5617    7.7735    0.9306 N.pl3     1 <0>        -0.3887
      7 N2         -2.1978    8.1921   -0.2422 N.2       1 <0>        -0.4028
      8 C5         -0.6549    8.5286    1.6818 C.ar      1 <0>         0.1867
      9 C6         -0.0913    7.9930    2.8342 C.ar      1 <0>        -0.1655
     10 C7          0.8056    8.7347    3.5798 C.ar      1 <0>        -0.1221
     11 C8          1.1478   10.0122    3.1854 C.ar      1 <0>        -0.1191
     12 C9          0.5874   10.5596    2.0296 C.ar      1 <0>        -0.1068
     13 C10        -0.3141    9.8087    1.2740 C.ar      1 <0>        -0.1068
     14 C11         0.9514   11.9271    1.6052 C.2       1 <0>         0.4977
     15 O2          0.4626   12.4013    0.5993 O.co2     1 <0>        -0.6348
     16 O3          1.8254   12.6482    2.3338 O.co2     1 <0>        -0.7704
     17 C12        -3.6243    4.8475    0.0456 C.2       1 <0>         0.1203
     18 C13        -2.9256    3.6937   -0.0191 C.2       1 <0>        -0.2181
     19 C14        -1.4205    3.5358   -0.1154 C.3       1 <0>         0.3617
     20 H1         -0.8446    4.0234    0.6849 H         1 <0>         0.0774
     21 N3         -1.2288    2.0758   -0.1568 N.pl3     1 <0>        -0.4862
     22 N4         -2.4985    1.4961   -0.0809 N.2       1 <0>        -0.2537
     23 C15        -3.4441    2.3741   -0.0046 C.2       1 <0>         0.1024
     24 C16        -4.9103    2.0382    0.0876 C.3       1 <0>        -0.0732
     25 C17        -0.0120    1.4005   -0.2482 C.ar      1 <0>         0.2244
     26 C18         1.1781    2.1176   -0.3220 C.ar      1 <0>        -0.1898
     27 C19         2.3858    1.4530   -0.4179 C.ar      1 <0>        -0.0976
     28 C20         2.4201    0.0733   -0.4422 C.ar      1 <0>        -0.1295
     29 C21         1.2317   -0.6566   -0.3687 C.ar      1 <0>        -0.0848
     30 C22         0.0119    0.0135   -0.2714 C.ar      1 <0>        -0.1293
     31 C23         1.2661   -2.1334   -0.3945 C.2       1 <0>         0.4953
     32 O4          0.2312   -2.7662   -0.3309 O.co2     1 <0>        -0.6335
     33 O5          2.4451   -2.7781   -0.4886 O.co2     1 <0>        -0.7644
     34 O6         -0.9293    4.1418   -1.3128 O.3       1 <0>        -0.5850
     35 H2         -4.4124    6.3178   -2.0566 H         1 <0>         0.0595
     36 H3         -3.2268    7.4312   -2.8189 H         1 <0>         0.0595
     37 H4         -4.5841    8.0935   -1.8463 H         1 <0>         0.0572
     38 H5         -0.3553    6.9939    3.1481 H         1 <0>         0.1461
     39 H6          1.2404    8.3129    4.4739 H         1 <0>         0.1110
     40 H7          1.8492   10.5884    3.7706 H         1 <0>         0.1202
     41 H8         -0.7477   10.2250    0.3768 H         1 <0>         0.1334
     42 H9         -4.7236    4.8274    0.0127 H         1 <0>         0.1025
     43 H10        -5.0373    0.9456    0.0796 H         1 <0>         0.0698
     44 H11        -5.4413    2.4754   -0.7708 H         1 <0>         0.0744
     45 H12        -5.3224    2.4484    1.0214 H         1 <0>         0.0752
     46 H13         1.1579    3.1973   -0.3038 H         1 <0>         0.1118
     47 H14         3.3062    2.0151   -0.4745 H         1 <0>         0.1168
     48 H15         3.3662   -0.4420   -0.5176 H         1 <0>         0.1243
     49 H16        -0.9104   -0.5455   -0.2139 H         1 <0>         0.1316
     50 H17         0.1468    4.1181   -1.5398 H         1 <0>         0.3871
@<TRIPOS>BOND
     1    1    2 1
     2    1   35 1
     3    1   36 1
     4    1   37 1
     5    2    7 2
     6    2    3 1
     7    3    4 2
     8    3   17 1
     9    4    5 1
    10    4    6 1
    11    6    7 1
    12    6    8 1
    13    8   13 ar
    14    8    9 ar
    15    9   10 ar
    16    9   38 1
    17   10   11 ar
    18   10   39 1
    19   11   12 ar
    20   11   40 1
    21   12   13 ar
    22   12   14 1
    23   13   41 1
    24   14   15 2
    25   14   16 1
    26   17   18 2
    27   17   42 1
    28   18   23 1
    29   18   19 1
    30   19   20 1
    31   19   21 1
    32   19   34 1
    33   21   22 1
    34   21   25 1
    35   22   23 2
    36   23   24 1
    37   24   43 1
    38   24   44 1
    39   24   45 1
    40   25   30 ar
    41   25   26 ar
    42   26   27 ar
    43   26   46 1
    44   27   28 ar
    45   27   47 1
    46   28   29 ar
    47   28   48 1
    48   29   30 ar
    49   29   31 1
    50   30   49 1
    51   31   32 2
    52   31   33 1
    53   34   50 1
@<TRIPOS>MOLECULE
ZINC13276821
   42    45     0     0     0
SMALL
USER_CHARGES

@<TRIPOS>ATOM
      1 C1          0.0498    1.5864    0.1085 C.ar      1 <0>        -0.0738
      2 C2          1.2250    2.2469   -0.1834 C.ar      1 <0>        -0.1275
      3 C3          2.4216    1.5535   -0.2269 C.ar      1 <0>        -0.0312
      4 C4          2.4475    0.1843    0.0236 C.ar      1 <0>         0.1506
      5 C5          1.2729   -0.4882    0.3180 C.ar      1 <0>        -0.0593
      6 C6          0.0649    0.2121    0.3619 C.ar      1 <0>        -0.1229
      7 C7         -1.1901   -0.4965    0.6747 C.2       1 <0>         0.5257
      8 O1         -2.2465    0.1186    0.7126 O.co2     1 <0>        -0.6900
      9 O2         -1.1745   -1.6992    0.8961 O.co2     1 <0>        -0.6823
     10 N1          3.6592   -0.5120   -0.0225 N.am      1 <0>        -0.5608
     11 C8          4.5012   -0.8559    1.1292 C.3       1 <0>         0.2521
     12 H1          3.9491   -1.4932    1.8199 H         1 <0>         0.0800
     13 C9          5.6922   -1.6013    0.5737 C.2       1 <0>        -0.4883
     14 C10         5.5218   -1.6636   -0.7707 C.2       1 <0>         0.2989
     15 C11         4.2553   -0.9898   -1.1299 C.2       1 <0>         0.5139
     16 O3          3.8187   -0.8818   -2.2586 O.2       1 <0>        -0.5169
     17 O4          6.3717   -2.2511   -1.6422 O.3       1 <0>        -0.6006
     18 C12         6.7756   -2.1315    1.3126 C.2       1 <0>         0.4508
     19 O5          7.7227   -2.6223    0.7334 O.2       1 <0>        -0.5092
     20 C13         6.7540   -2.0869    2.8187 C.3       1 <0>        -0.1942
     21 C14         8.0585   -1.7288    3.5336 C.3       1 <0>        -0.1588
     22 C15         7.5367   -3.1666    3.5688 C.3       1 <0>        -0.1630
     23 C16         4.9548    0.3978    1.8318 C.ar      1 <0>        -0.0884
     24 C17         6.2376    0.8740    1.6363 C.ar      1 <0>        -0.0445
     25 C18         6.6542    2.0239    2.2800 C.ar      1 <0>        -0.1101
     26 C19         5.7879    2.6994    3.1212 C.ar      1 <0>        -0.0635
     27 C20         4.5045    2.2242    3.3183 C.ar      1 <0>        -0.1356
     28 C21         4.0849    1.0757    2.6687 C.ar      1 <0>         0.1195
     29 F1          2.8294    0.6134    2.8563 F         1 <0>        -0.1229
     30 Br1         6.3594    4.2722    4.0018 Br        1 <0>        -0.0623
     31 Cl1         3.8953    2.3936   -0.5956 Cl        1 <0>        -0.0768
     32 H2         -0.8815    2.1320    0.1455 H         1 <0>         0.1351
     33 H3          1.2111    3.3090   -0.3789 H         1 <0>         0.1259
     34 H4          1.2908   -1.5504    0.5126 H         1 <0>         0.1368
     35 H5          5.8229   -1.7384    3.2655 H         1 <0>         0.1064
     36 H6          8.9323   -1.5254    2.9146 H         1 <0>         0.0949
     37 H7          7.9857   -1.1444    4.4509 H         1 <0>         0.0890
     38 H8          7.1206   -3.5282    4.5091 H         1 <0>         0.0891
     39 H9          8.0672   -3.9092    2.9728 H         1 <0>         0.0975
     40 H10         6.9148    0.3471    0.9805 H         1 <0>         0.1479
     41 H11         7.6567    2.3952    2.1266 H         1 <0>         0.1317
     42 H12         3.8284    2.7510    3.9754 H         1 <0>         0.1375
@<TRIPOS>BOND
     1    1    6 ar
     2    1    2 ar
     3    1   32 1
     4    2    3 ar
     5    2   33 1
     6    3    4 ar
     7    3   31 1
     8    4    5 ar
     9    4   10 1
    10    5    6 ar
    11    5   34 1
    12    6    7 1
    13    7    8 2
    14    7    9 1
    15   10   15 am
    16   10   11 1
    17   11   12 1
    18   11   13 1
    19   11   23 1
    20   13   14 2
    21   13   18 1
    22   14   15 1
    23   14   17 1
    24   15   16 2
    25   18   19 2
    26   18   20 1
    27   20   22 1
    28   20   21 1
    29   20   35 1
    30   21   22 1
    31   21   36 1
    32   21   37 1
    33   22   38 1
    34   22   39 1
    35   23   28 ar
    36   23   24 ar
    37   24   25 ar
    38   24   40 1
    39   25   26 ar
    40   25   41 1
    41   26   27 ar
    42   26   30 1
    43   27   28 ar
    44   27   42 1
    45   28   29 1
@<TRIPOS>MOLECULE
ZINC16913174
   53    55     0     0     0
SMALL
USER_CHARGES

@<TRIPOS>ATOM
      1 C1         -0.0148    1.8605   -0.3024 C.3       1 <0>        -0.1481
      2 C2         -0.0878    0.3504   -0.5374 C.3       1 <0>        -0.0988
      3 C3         -1.5529   -0.0876   -0.5879 C.3       1 <0>         0.0115
      4 H1         -2.0604    0.2359    0.3209 H         1 <0>         0.0666
      5 C4         -1.6250   -1.5890   -0.6961 C.2       1 <0>         0.4820
      6 O1         -1.2210   -2.2862    0.2188 O.co2     1 <0>        -0.6973
      7 O2         -2.0873   -2.1064   -1.6987 O.co2     1 <0>        -0.6743
      8 O3         -2.1877    0.5029   -1.7239 O.3       1 <0>        -0.2832
      9 C5         -3.5355    0.6612   -1.6643 C.ar      1 <0>         0.1559
     10 C6         -4.2449    0.1528   -0.5841 C.ar      1 <0>        -0.1767
     11 C7         -5.6117    0.3096   -0.5178 C.ar      1 <0>        -0.0244
     12 C8         -6.2890    0.9837   -1.5416 C.ar      1 <0>        -0.0873
     13 C9         -5.5722    1.4962   -2.6301 C.ar      1 <0>        -0.1491
     14 C10        -4.2015    1.3386   -2.6851 C.ar      1 <0>         0.0636
     15 O4         -3.5014    1.8398   -3.7378 O.3       1 <0>        -0.3078
     16 C11        -4.2478    2.5223   -4.7473 C.3       1 <0>         0.0305
     17 C12        -7.7459    1.1520   -1.4743 C.2       1 <0>         0.0072
     18 C13        -8.3387    1.4681   -0.2949 C.2       1 <0>        -0.2005
     19 C14        -7.7303    1.8495    1.0011 C.2       1 <0>         0.5251
     20 O5         -6.5206    1.9232    1.1476 O.2       1 <0>        -0.5147
     21 N1         -8.5648    2.1046    1.9843 N.2       1 <0>        -0.7115
     22 C15        -9.8783    2.0289    1.8387 C.2       1 <0>         0.4547
     23 S1        -10.0742    1.5491    0.1296 S.3       1 <0>        -0.1551
     24 N2        -10.8531    2.2661    2.7731 N.2       1 <0>        -0.5812
     25 C16       -10.5208    2.8582    3.9951 C.ar      1 <0>         0.1716
     26 C17        -9.3615    3.6153    4.1094 C.ar      1 <0>        -0.1557
     27 C18        -9.0362    4.1988    5.3179 C.ar      1 <0>        -0.0812
     28 C19        -9.8630    4.0302    6.4138 C.ar      1 <0>        -0.1740
     29 C20       -11.0172    3.2770    6.3035 C.ar      1 <0>        -0.1096
     30 C21       -11.3517    2.6957    5.0960 C.ar      1 <0>        -0.1238
     31 C22       -12.6137    1.8810    4.9749 C.3       1 <0>        -0.0892
     32 C23        -7.7787    5.0198    5.4430 C.3       1 <0>        -0.1072
     33 H2          1.0290    2.1725   -0.2664 H         1 <0>         0.0464
     34 H3         -0.5213    2.3797   -1.1160 H         1 <0>         0.0576
     35 H4         -0.4999    2.1050    0.6425 H         1 <0>         0.0496
     36 H5          0.3973    0.1058   -1.4823 H         1 <0>         0.0637
     37 H6          0.4187   -0.1688    0.2762 H         1 <0>         0.0805
     38 H7         -3.7236   -0.3671    0.2060 H         1 <0>         0.1320
     39 H8         -6.1609   -0.0874    0.3231 H         1 <0>         0.1211
     40 H9         -6.0896    2.0169   -3.4223 H         1 <0>         0.1267
     41 H10        -3.5703    2.8708   -5.5269 H         1 <0>         0.0892
     42 H11        -4.9804    1.8412   -5.1804 H         1 <0>         0.0481
     43 H12        -4.7620    3.3754   -4.3048 H         1 <0>         0.0472
     44 H13        -8.3459    1.0244   -2.3631 H         1 <0>         0.1261
     45 H14        -8.7153    3.7470    3.2541 H         1 <0>         0.1393
     46 H15        -9.6062    4.4876    7.3578 H         1 <0>         0.1027
     47 H16       -11.6605    3.1470    7.1613 H         1 <0>         0.1065
     48 H17       -12.3980    0.8394    5.2133 H         1 <0>         0.0517
     49 H18       -13.3620    2.2650    5.6681 H         1 <0>         0.0438
     50 H19       -12.9937    1.9491    3.9556 H         1 <0>         0.0717
     51 H20        -7.9994    6.0608    5.2071 H         1 <0>         0.0577
     52 H21        -7.3996    4.9507    6.4626 H         1 <0>         0.0549
     53 H22        -7.0274    4.6416    4.7497 H         1 <0>         0.0651
@<TRIPOS>BOND
     1    1    2 1
     2    1   33 1
     3    1   34 1
     4    1   35 1
     5    2    3 1
     6    2   36 1
     7    2   37 1
     8    3    4 1
     9    3    5 1
    10    3    8 1
    11    5    6 2
    12    5    7 1
    13    8    9 1
    14    9   14 ar
    15    9   10 ar
    16   10   11 ar
    17   10   38 1
    18   11   12 ar
    19   11   39 1
    20   12   13 ar
    21   12   17 1
    22   13   14 ar
    23   13   40 1
    24   14   15 1
    25   15   16 1
    26   16   41 1
    27   16   42 1
    28   16   43 1
    29   17   18 2
    30   17   44 1
    31   18   23 1
    32   18   19 1
    33   19   20 2
    34   19   21 1
    35   21   22 2
    36   22   23 1
    37   22   24 1
    38   24   25 1
    39   25   30 ar
    40   25   26 ar
    41   26   27 ar
    42   26   45 1
    43   27   28 ar
    44   27   32 1
    45   28   29 ar
    46   28   46 1
    47   29   30 ar
    48   29   47 1
    49   30   31 1
    50   31   48 1
    51   31   49 1
    52   31   50 1
    53   32   51 1
    54   32   52 1
    55   32   53 1
@<TRIPOS>MOLECULE
ZINC66200364
   50    52     0     0     0
SMALL
USER_CHARGES

@<TRIPOS>ATOM
      1 C1         -0.0187    1.5258    0.0104 C.3       1 <0>        -0.1370
      2 C2          0.0021   -0.0041    0.0020 C.3       1 <0>        -0.0509
      3 C3          0.7280   -0.4995   -1.2517 C.3       1 <0>        -0.1432
      4 C4          0.7921   -2.0043   -1.2292 C.2       1 <0>         0.3993
      5 O1          0.8125   -2.6247   -2.2808 O.3       1 <0>        -0.5750
      6 C5          0.8288   -2.6962   -0.0173 C.2       1 <0>        -0.5017
      7 C6          0.8925   -4.1631   -0.0256 C.2       1 <0>         0.2844
      8 N1          0.9273   -4.8211    1.1009 N.2       1 <0>        -0.5448
      9 C7          0.9868   -6.1890    1.0931 C.ar      1 <0>         0.1796
     10 C8          0.1634   -6.9219    0.2359 C.ar      1 <0>        -0.2106
     11 C9          0.2288   -8.2998    0.2329 C.ar      1 <0>        -0.0012
     12 C10         1.1073   -8.9557    1.0770 C.ar      1 <0>        -0.6673
     13 C11         1.9256   -8.2358    1.9293 C.ar      1 <0>        -0.0069
     14 C12         1.8751   -6.8573    1.9382 C.ar      1 <0>        -0.1619
     15 S1          1.1837  -10.7161    1.0670 S.o2      1 <0>         2.6392
     16 O2          1.6931  -11.1077    2.3345 O.2       1 <0>        -1.0266
     17 O3         -0.0680  -11.1741    0.5745 O.2       1 <0>        -1.0269
     18 N2          2.3215  -11.1504   -0.0551 N.2       1 <0>        -1.0437
     19 C13         2.5981  -12.4955   -0.2810 C.ar      1 <0>         0.4132
     20 C14         3.5636  -12.8656   -1.2250 C.ar      1 <0>         0.2314
     21 N3          3.8205  -14.1458   -1.4339 N.ar      1 <0>        -0.4840
     22 C15         3.1657  -15.0730   -0.7514 C.ar      1 <0>        -0.0648
     23 C16         2.2142  -14.7095    0.1783 C.ar      1 <0>         0.0703
     24 N4          1.9529  -13.4303    0.3999 N.ar      1 <0>        -0.5495
     25 O4          4.2332  -11.9135   -1.9236 O.3       1 <0>        -0.2797
     26 C17         5.2040  -12.3657   -2.8698 C.3       1 <0>         0.0409
     27 C18         0.8065   -2.0175    1.2023 C.2       1 <0>         0.3940
     28 O5          0.8394   -2.6492    2.2468 O.2       1 <0>        -0.5188
     29 C19         0.7423   -0.5131    1.2419 C.3       1 <0>        -0.1482
     30 C20        -1.4327   -0.5354    0.0085 C.3       1 <0>        -0.1435
     31 H1          1.0039    1.9031    0.0027 H         1 <0>         0.0510
     32 H2         -0.5459    1.8868   -0.8726 H         1 <0>         0.0504
     33 H3         -0.5289    1.8773    0.9072 H         1 <0>         0.0508
     34 H4          0.1864   -0.1718   -2.1390 H         1 <0>         0.0704
     35 H5          1.7390   -0.0927   -1.2713 H         1 <0>         0.0763
     36 H6          0.9106   -4.6975   -0.9640 H         1 <0>         0.0778
     37 H7         -0.5232   -6.4112   -0.4230 H         1 <0>         0.1164
     38 H8         -0.4074   -8.8680   -0.4295 H         1 <0>         0.1254
     39 H9          2.6085   -8.7541    2.5861 H         1 <0>         0.1280
     40 H10         2.5179   -6.2963    2.6004 H         1 <0>         0.1223
     41 H11         3.3775  -16.1179   -0.9240 H         1 <0>         0.1431
     42 H12         1.6837  -15.4707    0.7310 H         1 <0>         0.1437
     43 H13         5.6640  -11.5061   -3.3573 H         1 <0>         0.0829
     44 H14         5.9706  -12.9449   -2.3552 H         1 <0>         0.0444
     45 H15         4.7177  -12.9908   -3.6187 H         1 <0>         0.0445
     46 H16         1.7535   -0.1064    1.2543 H         1 <0>         0.0731
     47 H17         0.2109   -0.1950    2.1388 H         1 <0>         0.0685
     48 H18        -1.9576   -0.1749   -0.8762 H         1 <0>         0.0467
     49 H19        -1.4166   -1.6253    0.0025 H         1 <0>         0.0711
     50 H20        -1.9460   -0.1845    0.9037 H         1 <0>         0.0474
@<TRIPOS>BOND
     1    1    2 1
     2    1   31 1
     3    1   32 1
     4    1   33 1
     5    2   29 1
     6    2    3 1
     7    2   30 1
     8    3    4 1
     9    3   34 1
    10    3   35 1
    11    4    5 1
    12    4    6 2
    13    6    7 1
    14    6   27 1
    15    7    8 2
    16    7   36 1
    17    8    9 1
    18    9   14 ar
    19    9   10 ar
    20   10   11 ar
    21   10   37 1
    22   11   12 ar
    23   11   38 1
    24   12   13 ar
    25   12   15 1
    26   13   14 ar
    27   13   39 1
    28   14   40 1
    29   15   16 2
    30   15   17 2
    31   15   18 1
    32   18   19 1
    33   19   24 ar
    34   19   20 ar
    35   20   21 ar
    36   20   25 1
    37   21   22 ar
    38   22   23 ar
    39   22   41 1
    40   23   24 ar
    41   23   42 1
    42   25   26 1
    43   26   43 1
    44   26   44 1
    45   26   45 1
    46   27   28 2
    47   27   29 1
    48   29   46 1
    49   29   47 1
    50   30   48 1
    51   30   49 1
    52   30   50 1
@<TRIPOS>MOLECULE
ZINC37552595
   34    35     0     0     0
SMALL
USER_CHARGES

@<TRIPOS>ATOM
      1 C1         -0.0184    1.5028    0.0103 C.3       1 <0>        -0.1322
      2 C2          0.0021   -0.0041    0.0020 C.2       1 <0>         0.2073
      3 C3          0.0079   -0.7958   -1.0953 C.2       1 <0>        -0.7722
      4 C4          0.0284   -2.1267   -0.6656 C.2       1 <0>         0.1670
      5 N1          0.0347   -2.1338    0.6427 N.2       1 <0>        -0.3083
      6 N2          0.0237   -0.8054    1.0876 N.pl3     1 <0>        -0.4748
      7 H1          0.0286   -0.5133    2.0125 H         1 <0>         0.4355
      8 C5          0.0404   -3.3426   -1.5559 C.3       1 <0>        -0.1045
      9 S1         -0.0081   -0.2472   -2.7696 S.o2      1 <0>         2.6751
     10 O1         -0.5477   -1.3118   -3.5407 O.2       1 <0>        -1.0061
     11 O2         -0.5775    1.0548   -2.7649 O.2       1 <0>        -1.0119
     12 N3          1.5692   -0.0722   -3.2427 N.2       1 <0>        -1.0243
     13 C6          1.8635    0.3522   -4.5262 C.2       1 <0>         0.4063
     14 N4          1.0267    0.6655   -5.4951 N.2       1 <0>        -0.6594
     15 C7          1.4618    1.0569   -6.6739 C.2       1 <0>         0.1606
     16 C8          2.8226    1.1206   -6.8380 C.2       1 <0>        -0.2563
     17 S2          3.3756    0.5994   -5.2222 S.3       1 <0>         0.0580
     18 C9          3.5877    1.5042   -7.9861 C.1       1 <0>        -0.0195
     19 C10         4.2149    1.8186   -8.9274 C.1       1 <0>        -0.2338
     20 C11         5.0014    2.2129  -10.1075 C.3       1 <0>         0.0150
     21 C12         6.4932    2.1162   -9.7818 C.3       1 <0>         0.0789
     22 O3          7.2567    2.4990  -10.9275 O.3       1 <0>        -0.5775
     23 H2          1.0042    1.8801    0.0026 H         1 <0>         0.0936
     24 H3         -0.5455    1.8639   -0.8728 H         1 <0>         0.1278
     25 H4         -0.5286    1.8543    0.9071 H         1 <0>         0.0752
     26 H5          1.0708   -3.6217   -1.7759 H         1 <0>         0.0846
     27 H6         -0.4595   -4.1685   -1.0497 H         1 <0>         0.0736
     28 H7         -0.4815   -3.1172   -2.4858 H         1 <0>         0.1139
     29 H8          0.7818    1.3147   -7.4723 H         1 <0>         0.1545
     30 H9          4.7672    1.5481  -10.9389 H         1 <0>         0.0852
     31 H10         4.7552    3.2387  -10.3821 H         1 <0>         0.0877
     32 H11         6.7274    2.7811   -8.9504 H         1 <0>         0.0507
     33 H12         6.7394    1.0905   -9.5072 H         1 <0>         0.0501
     34 H13         8.2136    2.4615  -10.7929 H         1 <0>         0.3803
@<TRIPOS>BOND
     1    1    2 1
     2    1   23 1
     3    1   24 1
     4    1   25 1
     5    2    6 1
     6    2    3 2
     7    3    4 1
     8    3    9 1
     9    4    5 2
    10    4    8 1
    11    5    6 1
    12    6    7 1
    13    8   26 1
    14    8   27 1
    15    8   28 1
    16    9   10 2
    17    9   11 2
    18    9   12 1
    19   12   13 1
    20   13   17 1
    21   13   14 2
    22   14   15 1
    23   15   16 2
    24   15   29 1
    25   16   17 1
    26   16   18 1
    27   18   19 3
    28   19   20 1
    29   20   21 1
    30   20   30 1
    31   20   31 1
    32   21   22 1
    33   21   32 1
    34   21   33 1
    35   22   34 1
@<TRIPOS>MOLECULE
ZINC45713156
   37    39     0     0     0
SMALL
USER_CHARGES

@<TRIPOS>ATOM
      1 C1         -0.0180    1.4606    0.0100 C.3       1 <0>         0.0658
      2 N1          0.0010   -0.0042    0.0021 N.pl3     1 <0>        -0.4090
      3 C2         -0.0899   -0.7900   -1.0984 C.2       1 <0>         0.1342
      4 C3         -0.0367   -2.0882   -0.7155 C.2       1 <0>        -0.6845
      5 C4          0.0924   -2.1199    0.6765 C.2       1 <0>        -0.0424
      6 C5          0.1200   -0.8116    1.1106 C.2       1 <0>        -0.0799
      7 C6          0.2492   -0.3619    2.5008 C.2       1 <0>         0.6026
      8 O1          0.1697    0.8229    2.7670 O.2       1 <0>        -0.5597
      9 N2          0.4559   -1.2609    3.4834 N.am      1 <0>        -0.8433
     10 S1         -0.1160   -3.4885   -1.7821 S.o2      1 <0>         2.6257
     11 O2         -0.5813   -4.5745   -0.9926 O.2       1 <0>        -1.0326
     12 O3         -0.7840   -3.0630   -2.9619 O.2       1 <0>        -1.0369
     13 N3          1.4371   -3.8559   -2.2240 N.2       1 <0>        -1.0397
     14 C7          1.6841   -4.9348   -3.0775 C.ar      1 <0>         0.2937
     15 C8          0.6290   -5.6960   -3.5604 C.ar      1 <0>        -0.2516
     16 C9          0.8759   -6.7617   -4.4044 C.ar      1 <0>        -0.0588
     17 C10         2.1728   -7.0737   -4.7701 C.ar      1 <0>        -0.2108
     18 C11         3.2296   -6.3214   -4.2936 C.ar      1 <0>        -0.0796
     19 C12         2.9911   -5.2461   -3.4509 C.ar      1 <0>         0.0464
     20 N4          4.0622   -4.4775   -2.9706 N.pl3     1 <0>        -0.2732
     21 C13         5.3689   -4.6523   -3.2460 C.2       1 <0>         0.2083
     22 N5          6.0446   -3.7321   -2.6059 N.2       1 <0>        -0.5557
     23 C14         5.2099   -2.9562   -1.9156 C.2       1 <0>         0.1373
     24 N6          3.9846   -3.3690   -2.1117 N.2       1 <0>        -0.2259
     25 H1          1.0049    1.8372    0.0119 H         1 <0>         0.0778
     26 H2         -0.5365    1.8221   -0.8780 H         1 <0>         0.0854
     27 H3         -0.5364    1.8125    0.9019 H         1 <0>         0.1000
     28 H4         -0.1886   -0.4385   -2.1148 H         1 <0>         0.1835
     29 H5          0.1611   -3.0027    1.2948 H         1 <0>         0.1533
     30 H6          0.5924   -2.1960    3.2644 H         1 <0>         0.4070
     31 H7          0.4683   -0.9729    4.4096 H         1 <0>         0.4068
     32 H8         -0.3848   -5.4556   -3.2763 H         1 <0>         0.1073
     33 H9          0.0537   -7.3532   -4.7794 H         1 <0>         0.1099
     34 H10         2.3602   -7.9080   -5.4298 H         1 <0>         0.1140
     35 H11         4.2410   -6.5682   -4.5810 H         1 <0>         0.1142
     36 H12         5.7862   -5.4177   -3.8835 H         1 <0>         0.2069
     37 H13         5.4983   -2.1186   -1.2979 H         1 <0>         0.2035
@<TRIPOS>BOND
     1    1    2 1
     2    1   25 1
     3    1   26 1
     4    1   27 1
     5    2    6 1
     6    2    3 1
     7    3    4 2
     8    3   28 1
     9    4    5 1
    10    4   10 1
    11    5    6 2
    12    5   29 1
    13    6    7 1
    14    7    8 2
    15    7    9 am
    16    9   30 1
    17    9   31 1
    18   10   11 2
    19   10   12 2
    20   10   13 1
    21   13   14 1
    22   14   19 ar
    23   14   15 ar
    24   15   16 ar
    25   15   32 1
    26   16   17 ar
    27   16   33 1
    28   17   18 ar
    29   17   34 1
    30   18   19 ar
    31   18   35 1
    32   19   20 1
    33   20   24 1
    34   20   21 1
    35   21   22 2
    36   21   36 1
    37   22   23 1
    38   23   24 2
    39   23   37 1
@<TRIPOS>MOLECULE
ZINC41606029
   32    33     0     0     0
SMALL
USER_CHARGES

@<TRIPOS>ATOM
      1 C1         -0.0187    1.5258    0.0104 C.3       1 <0>        -0.1438
      2 C2          0.0021   -0.0041    0.0020 C.3       1 <0>         0.0074
      3 C3         -1.4333   -0.5336    0.0129 C.3       1 <0>        -0.1437
      4 C4          0.7074   -0.4901   -1.2379 C.2       1 <0>         0.0283
      5 N1          0.4204   -0.2873   -2.5081 N.2       1 <0>        -0.2267
      6 N2          1.1613   -0.7981   -3.3950 N.2       1 <0>        -0.3025
      7 C5          2.2145   -1.5290   -3.0867 C.2       1 <0>         0.2469
      8 S1          2.1745   -1.4980   -1.4016 S.3       1 <0>         0.0623
      9 N3          3.1240   -2.1568   -3.9310 N.am      1 <0>        -0.6129
     10 C6          2.9839   -2.0550   -5.2676 C.2       1 <0>         0.5291
     11 O1          2.0647   -1.4160   -5.7341 O.2       1 <0>        -0.4449
     12 C7          3.9694   -2.7353   -6.1825 C.3       1 <0>        -0.1453
     13 S2          3.5138   -2.4134   -7.9086 S.3       1 <0>         0.0385
     14 C8          4.7445   -3.2636   -8.8399 C.2       1 <0>        -0.1778
     15 C9          4.7200   -3.2345  -10.2618 C.2       1 <0>         0.5441
     16 O2          3.8524   -2.6245  -10.8630 O.2       1 <0>        -0.5491
     17 N4          5.6898   -3.9045  -10.9267 N.am      1 <0>        -0.6505
     18 H1          5.7118   -3.9113  -11.8964 H         1 <0>         0.4065
     19 C10         6.6347   -4.5690  -10.2043 C.2       1 <0>         0.5624
     20 O3          7.6127   -5.2449  -10.8452 O.3       1 <0>        -0.6552
     21 N5          6.6048   -4.5587   -8.8902 N.2       1 <0>        -0.4059
     22 N6          5.7011   -3.9291   -8.2291 N.2       1 <0>        -0.1410
     23 H2          1.0039    1.9031    0.0027 H         1 <0>         0.0589
     24 H3         -0.5459    1.8868   -0.8726 H         1 <0>         0.0689
     25 H4         -0.5289    1.8773    0.9072 H         1 <0>         0.0707
     26 H5          0.5293   -0.3651    0.8851 H         1 <0>         0.0970
     27 H6         -1.9605   -0.1726   -0.8702 H         1 <0>         0.0688
     28 H7         -1.4185   -1.6235    0.0069 H         1 <0>         0.0590
     29 H8         -1.9435   -0.1821    0.9097 H         1 <0>         0.0708
     30 H9          3.8592   -2.6679   -3.5580 H         1 <0>         0.4310
     31 H10         4.9699   -2.3467   -5.9923 H         1 <0>         0.1244
     32 H11         3.9556   -3.8094   -5.9973 H         1 <0>         0.1245
@<TRIPOS>BOND
     1    1    2 1
     2    1   23 1
     3    1   24 1
     4    1   25 1
     5    2    3 1
     6    2    4 1
     7    2   26 1
     8    3   27 1
     9    3   28 1
    10    3   29 1
    11    4    8 1
    12    4    5 2
    13    5    6 1
    14    6    7 2
    15    7    8 1
    16    7    9 1
    17    9   10 am
    18    9   30 1
    19   10   11 2
    20   10   12 1
    21   12   13 1
    22   12   31 1
    23   12   32 1
    24   13   14 1
    25   14   22 2
    26   14   15 1
    27   15   16 2
    28   15   17 am
    29   17   18 1
    30   17   19 1
    31   19   20 1
    32   19   21 2
    33   21   22 1
@<TRIPOS>MOLECULE
ZINC09172638
   42    44     0     0     0
SMALL
USER_CHARGES

@<TRIPOS>ATOM
      1 C1         -0.0178    1.4608    0.0101 C.3       1 <0>         0.0815
      2 N1          0.0021   -0.0041    0.0020 N.am      1 <0>        -0.5700
      3 C2         -1.1650   -0.6827    0.0040 C.2       1 <0>         0.5774
      4 O1         -2.2323   -0.0974    0.0119 O.2       1 <0>        -0.5764
      5 C3         -1.1050   -2.1538   -0.0043 C.2       1 <0>        -0.4054
      6 C4          0.2380   -2.7684   -0.0141 C.2       1 <0>         0.5626
      7 N2          1.3100   -1.9588   -0.0149 N.2       1 <0>        -0.6757
      8 C5          1.1942   -0.6546   -0.0129 C.2       1 <0>         0.6342
      9 O2          2.3211    0.0837   -0.0197 O.3       1 <0>        -0.6726
     10 O3          0.3704   -3.9807   -0.0210 O.2       1 <0>        -0.5671
     11 C6         -2.2532   -2.9246   -0.0025 C.2       1 <0>         0.3015
     12 N3         -3.5174   -2.4623    0.0007 N.pl3     1 <0>        -0.5368
     13 N4         -4.4476   -3.4584   -0.0331 N.3       1 <0>        -0.4399
     14 C7         -3.7835   -4.7144    0.3863 C.3       1 <0>         0.0905
     15 H1         -3.8803   -4.8663    1.4613 H         1 <0>         0.0795
     16 C8         -2.3106   -4.4416   -0.0104 C.3       1 <0>        -0.0864
     17 C9         -4.3332   -5.8942   -0.3734 C.ar      1 <0>        -0.0661
     18 C10        -4.6413   -5.7676   -1.7152 C.ar      1 <0>        -0.0799
     19 C11        -5.1458   -6.8469   -2.4165 C.ar      1 <0>        -0.1745
     20 C12        -5.3433   -8.0590   -1.7748 C.ar      1 <0>         0.1010
     21 C13        -5.0329   -8.1864   -0.4243 C.ar      1 <0>         0.0964
     22 C14        -4.5230   -7.1021    0.2716 C.ar      1 <0>        -0.1593
     23 O4         -5.2250   -9.3740    0.2099 O.3       1 <0>        -0.3077
     24 C15        -4.8842   -9.4315    1.5965 C.3       1 <0>         0.0254
     25 O5         -5.8400   -9.1215   -2.4631 O.3       1 <0>        -0.3083
     26 C16        -6.1364   -8.9174   -3.8460 C.3       1 <0>         0.0261
     27 H2          1.0048    1.8381    0.0023 H         1 <0>         0.0967
     28 H3         -0.5450    1.8219   -0.8730 H         1 <0>         0.0543
     29 H4         -0.5280    1.8123    0.9069 H         1 <0>         0.0537
     30 H5         -5.2289   -3.2442    0.5685 H         1 <0>         0.3432
     31 H6         -2.0953   -4.8328   -1.0047 H         1 <0>         0.1141
     32 H7         -1.6271   -4.8596    0.7286 H         1 <0>         0.1204
     33 H8         -4.4878   -4.8235   -2.2166 H         1 <0>         0.1367
     34 H9         -5.3863   -6.7452   -3.4645 H         1 <0>         0.1359
     35 H10        -4.2777   -7.1994    1.3188 H         1 <0>         0.1359
     36 H11        -5.0854  -10.4322    1.9789 H         1 <0>         0.0991
     37 H12        -3.8261   -9.2011    1.7205 H         1 <0>         0.0569
     38 H13        -5.4812   -8.7050    2.1478 H         1 <0>         0.0535
     39 H14        -6.8829   -8.1294   -3.9452 H         1 <0>         0.0543
     40 H15        -5.2280   -8.6257   -4.3731 H         1 <0>         0.0558
     41 H16        -6.5243   -9.8414   -4.2747 H         1 <0>         0.0986
     42 H17        -3.7429   -1.5192    0.0251 H         1 <0>         0.4409
@<TRIPOS>BOND
     1    1    2 1
     2    1   27 1
     3    1   28 1
     4    1   29 1
     5    2    8 1
     6    2    3 am
     7    3    4 2
     8    3    5 1
     9    5    6 1
    10    5   11 2
    11    6    7 1
    12    6   10 2
    13    7    8 2
    14    8    9 1
    15   11   16 1
    16   11   12 1
    17   12   13 1
    18   12   42 1
    19   13   14 1
    20   13   30 1
    21   14   15 1
    22   14   16 1
    23   14   17 1
    24   16   31 1
    25   16   32 1
    26   17   22 ar
    27   17   18 ar
    28   18   19 ar
    29   18   33 1
    30   19   20 ar
    31   19   34 1
    32   20   21 ar
    33   20   25 1
    34   21   22 ar
    35   21   23 1
    36   22   35 1
    37   23   24 1
    38   24   36 1
    39   24   37 1
    40   24   38 1
    41   25   26 1
    42   26   39 1
    43   26   40 1
    44   26   41 1
@<TRIPOS>MOLECULE
ZINC67052066
   42    43     0     0     0
SMALL
USER_CHARGES

@<TRIPOS>ATOM
      1 C1         -0.0187    1.5258    0.0104 C.3       1 <0>        -0.1425
      2 C2          0.0021   -0.0041    0.0020 C.3       1 <0>        -0.5978
      3 S1          0.8511   -0.5891   -1.4904 S.o2      1 <0>         2.5181
      4 O1          0.0816   -0.2798   -2.6443 O.2       1 <0>        -1.0285
      5 O2          2.2316   -0.2574   -1.4300 O.2       1 <0>        -1.0286
      6 N1          0.8085   -2.2411   -1.3844 N.2       1 <0>        -1.0410
      7 C3          1.3814   -3.0161   -2.3843 C.ar      1 <0>         0.3326
      8 C4          1.9963   -2.4091   -3.4725 C.ar      1 <0>        -0.2594
      9 C5          2.5651   -3.1812   -4.4643 C.ar      1 <0>        -0.0456
     10 C6          2.5285   -4.5646   -4.3846 C.ar      1 <0>        -0.2402
     11 C7          1.9234   -5.1844   -3.3136 C.ar      1 <0>        -0.0420
     12 C8          1.3474   -4.4165   -2.2981 C.ar      1 <0>        -0.2266
     13 C9          0.7034   -5.0734   -1.1460 C.2       1 <0>         0.5666
     14 O3          0.1996   -4.4016   -0.2665 O.2       1 <0>        -0.4969
     15 N2          0.6732   -6.4186   -1.0675 N.am      1 <0>        -0.7537
     16 C10         0.0333   -7.0713    0.0774 C.3       1 <0>         0.1348
     17 C11         0.1369   -8.5899   -0.0779 C.3       1 <0>        -0.0579
     18 C12        -0.5213   -9.2613    1.0998 C.2       1 <0>         0.2842
     19 N3         -1.0932   -8.6547    2.0897 N.2       1 <0>        -0.2609
     20 N4         -1.5802   -9.6267    2.9744 N.pl3     1 <0>        -0.4708
     21 C13        -1.2671  -10.8330    2.4570 C.2       1 <0>         0.4724
     22 N5         -0.6176  -10.6170    1.2955 N.pl3     1 <0>        -0.4932
     23 C14        -0.1000  -11.6520    0.3972 C.3       1 <0>         0.0781
     24 S2         -1.6336  -12.3571    3.1452 S.2       1 <0>        -0.5872
     25 H1          1.0039    1.9031    0.0027 H         1 <0>         0.0638
     26 H2         -0.5459    1.8868   -0.8726 H         1 <0>         0.0638
     27 H3         -0.5289    1.8773    0.9072 H         1 <0>         0.0683
     28 H4          0.5293   -0.3651    0.8851 H         1 <0>         0.1204
     29 H5         -1.0205   -0.3814    0.0098 H         1 <0>         0.1204
     30 H6          2.0288   -1.3319   -3.5421 H         1 <0>         0.1062
     31 H7          3.0416   -2.7048   -5.3083 H         1 <0>         0.1042
     32 H8          2.9765   -5.1596   -5.1667 H         1 <0>         0.1047
     33 H9          1.8975   -6.2626   -3.2569 H         1 <0>         0.1043
     34 H10         1.0750   -6.9545   -1.7690 H         1 <0>         0.3912
     35 H11         0.5332   -6.7651    0.9963 H         1 <0>         0.0732
     36 H12        -1.0165   -6.7813    0.1210 H         1 <0>         0.0733
     37 H13        -0.3631   -8.8961   -0.9968 H         1 <0>         0.1113
     38 H14         1.1867   -8.8799   -0.1214 H         1 <0>         0.1117
     39 H15         0.9234  -11.8994    0.6794 H         1 <0>         0.0905
     40 H16        -0.7231  -12.5432    0.4723 H         1 <0>         0.1103
     41 H17        -0.1150  -11.2836   -0.6286 H         1 <0>         0.0988
     42 H18        -2.0541   -9.4626    3.8048 H         1 <0>         0.4695
@<TRIPOS>BOND
     1    1    2 1
     2    1   25 1
     3    1   26 1
     4    1   27 1
     5    2    3 1
     6    2   28 1
     7    2   29 1
     8    3    4 2
     9    3    5 2
    10    3    6 1
    11    6    7 1
    12    7   12 ar
    13    7    8 ar
    14    8    9 ar
    15    8   30 1
    16    9   10 ar
    17    9   31 1
    18   10   11 ar
    19   10   32 1
    20   11   12 ar
    21   11   33 1
    22   12   13 1
    23   13   14 2
    24   13   15 am
    25   15   16 1
    26   15   34 1
    27   16   17 1
    28   16   35 1
    29   16   36 1
    30   17   37 1
    31   17   38 1
    32   17   18 1
    33   18   22 1
    34   18   19 2
    35   19   20 1
    36   20   21 1
    37   20   42 1
    38   21   24 2
    39   21   22 1
    40   22   23 1
    41   23   39 1
    42   23   40 1
    43   23   41 1
@<TRIPOS>MOLECULE
ZINC36829153
   33    34     0     0     0
SMALL
USER_CHARGES

@<TRIPOS>ATOM
      1 C1         -0.0178    1.4608    0.0101 C.3       1 <0>         0.0921
      2 N1          0.0021   -0.0041    0.0020 N.am      1 <0>        -0.7441
      3 C2          0.5851   -0.6645   -1.0180 C.2       1 <0>         0.5714
      4 O1          1.0946   -0.0445   -1.9315 O.2       1 <0>        -0.5631
      5 C3          0.6051   -2.1396   -1.0261 C.ar      1 <0>        -0.2585
      6 C4          0.0147   -2.8538    0.0206 C.ar      1 <0>        -0.0405
      7 C5          0.0346   -4.2297    0.0099 C.ar      1 <0>        -0.1905
      8 C6          0.6422   -4.9104   -1.0416 C.ar      1 <0>         0.3097
      9 C7          1.2315   -4.2020   -2.0852 C.ar      1 <0>        -0.2777
     10 C8          1.2094   -2.8261   -2.0833 C.ar      1 <0>         0.0042
     11 N2          0.6611   -6.3007   -1.0492 N.2       1 <0>        -1.0808
     12 S1          1.3834   -7.1121   -2.2991 S.o2      1 <0>         2.6197
     13 O2          0.6093   -6.8422   -3.4598 O.2       1 <0>        -1.0269
     14 O3          2.7720   -6.8197   -2.2245 O.2       1 <0>        -1.0177
     15 C9          1.2131   -8.8346   -1.9695 C.2       1 <0>        -0.7202
     16 C10         1.9293   -9.4217   -0.9169 C.2       1 <0>         0.0607
     17 C11         1.7858  -10.7565   -0.6756 C.2       1 <0>        -0.2634
     18 C12         0.9235  -11.5134   -1.4871 C.2       1 <0>         0.5243
     19 O4          0.7854  -12.7087   -1.2819 O.2       1 <0>        -0.5564
     20 N3          0.2492  -10.9205   -2.4906 N.am      1 <0>        -0.6064
     21 H1         -0.3447  -11.4485   -3.0469 H         1 <0>         0.4167
     22 C13         0.3864   -9.5910   -2.7288 C.2       1 <0>         0.2390
     23 H2          1.0048    1.8381    0.0023 H         1 <0>         0.0543
     24 H3         -0.5450    1.8219   -0.8730 H         1 <0>         0.0543
     25 H4         -0.5280    1.8123    0.9069 H         1 <0>         0.0686
     26 H5         -0.4044   -0.4986    0.7308 H         1 <0>         0.3992
     27 H6         -0.4562   -2.3263    0.8369 H         1 <0>         0.1080
     28 H7         -0.4214   -4.7821    0.8182 H         1 <0>         0.1191
     29 H8          1.7024   -4.7329   -2.8993 H         1 <0>         0.1040
     30 H9          1.6625   -2.2771   -2.8956 H         1 <0>         0.1167
     31 H10         2.5876   -8.8237   -0.3042 H         1 <0>         0.1462
     32 H11         2.3294  -11.2268    0.1304 H         1 <0>         0.1524
     33 H12        -0.1664   -9.1329   -3.5356 H         1 <0>         0.1856
@<TRIPOS>BOND
     1    1    2 1
     2    1   23 1
     3    1   24 1
     4    1   25 1
     5    2    3 am
     6    2   26 1
     7    3    4 2
     8    3    5 1
     9    5   10 ar
    10    5    6 ar
    11    6    7 ar
    12    6   27 1
    13    7    8 ar
    14    7   28 1
    15    8    9 ar
    16    8   11 1
    17    9   10 ar
    18    9   29 1
    19   10   30 1
    20   11   12 1
    21   12   13 2
    22   12   14 2
    23   12   15 1
    24   15   22 2
    25   15   16 1
    26   16   17 2
    27   16   31 1
    28   17   18 1
    29   17   32 1
    30   18   19 2
    31   18   20 am
    32   20   21 1
    33   20   22 1
    34   22   33 1
@<TRIPOS>MOLECULE
ZINC40323175
   33    35     0     0     0
SMALL
USER_CHARGES

@<TRIPOS>ATOM
      1 C1         -0.0178    1.4608    0.0101 C.3       1 <0>         0.1026
      2 N1          0.0021   -0.0041    0.0020 N.pl3     1 <0>        -0.3683
      3 C2          0.0078   -0.7908   -1.0946 C.2       1 <0>         0.1845
      4 C3          0.0280   -2.0784   -0.6813 C.2       1 <0>        -0.7942
      5 C4          0.0349   -2.0800    0.7230 C.2       1 <0>         0.4221
      6 N2          0.0245   -0.8328    1.1310 N.2       1 <0>        -0.3672
      7 N3          0.0549   -3.2137    1.5440 N.pl3     1 <0>        -0.8336
      8 S1          0.0430   -3.5013   -1.7203 S.o2      1 <0>         2.6407
      9 O1         -0.9684   -4.3717   -1.2317 O.2       1 <0>        -1.0112
     10 O2          0.0575   -3.0262   -3.0595 O.2       1 <0>        -1.0161
     11 N4          1.4887   -4.2711   -1.4756 N.2       1 <0>        -1.0187
     12 C5          1.7796   -5.4334   -2.1681 C.2       1 <0>         0.2586
     13 C6          2.9230   -6.2073   -2.0884 C.2       1 <0>        -0.2399
     14 C7          2.9850   -7.3995   -2.9332 C.2       1 <0>        -0.0461
     15 C8          1.8936   -7.5884   -3.6961 C.2       1 <0>        -0.2647
     16 S2          0.8236   -6.2315   -3.2913 S.3       1 <0>         0.0443
     17 C9          2.0112   -8.8238   -4.5472 C.3       1 <0>        -0.0178
     18 C10         3.5179   -9.1646   -4.5344 C.3       1 <0>        -0.1148
     19 C11         3.9723   -8.5331   -3.2028 C.3       1 <0>        -0.0595
     20 C12         4.0019   -5.8555   -1.2150 C.1       1 <0>         0.3276
     21 N5          4.8578   -5.5764   -0.5221 N.1       1 <0>        -0.5138
     22 H1          1.0048    1.8381    0.0023 H         1 <0>         0.0751
     23 H2         -0.5450    1.8219   -0.8730 H         1 <0>         0.0883
     24 H3         -0.5280    1.8123    0.9069 H         1 <0>         0.0887
     25 H4         -0.0023   -0.4522   -2.1201 H         1 <0>         0.1893
     26 H5          0.0654   -4.0991    1.1481 H         1 <0>         0.4188
     27 H6          0.0581   -3.1138    2.5089 H         1 <0>         0.4034
     28 H7          1.4332   -9.6401   -4.1140 H         1 <0>         0.0697
     29 H8          1.6767   -8.6179   -5.5640 H         1 <0>         0.0658
     30 H9          3.6737  -10.2434   -4.5276 H         1 <0>         0.0738
     31 H10         4.0293   -8.7035   -5.3794 H         1 <0>         0.0713
     32 H11         4.9836   -8.1380   -3.2984 H         1 <0>         0.0665
     33 H12         3.9285   -9.2703   -2.4011 H         1 <0>         0.0747
@<TRIPOS>BOND
     1    1    2 1
     2    1   22 1
     3    1   23 1
     4    1   24 1
     5    2    6 1
     6    2    3 1
     7    3    4 2
     8    3   25 1
     9    4    5 1
    10    4    8 1
    11    5    6 2
    12    5    7 1
    13    7   26 1
    14    7   27 1
    15    8    9 2
    16    8   10 2
    17    8   11 1
    18   11   12 1
    19   12   16 1
    20   12   13 2
    21   13   14 1
    22   13   20 1
    23   14   19 1
    24   14   15 2
    25   15   16 1
    26   15   17 1
    27   17   18 1
    28   17   28 1
    29   17   29 1
    30   18   19 1
    31   18   30 1
    32   18   31 1
    33   19   32 1
    34   19   33 1
    35   20   21 3
@<TRIPOS>MOLECULE
ZINC42189026
   33    35     0     0     0
SMALL
USER_CHARGES

@<TRIPOS>ATOM
      1 C1         -0.0167    1.3768    0.0096 C.ar      1 <0>        -0.1174
      2 C2          1.1719    2.0830    0.0021 C.ar      1 <0>        -0.1252
      3 C3          2.3755    1.4061   -0.0130 C.ar      1 <0>        -0.0823
      4 C4          2.3964    0.0213   -0.0206 C.ar      1 <0>        -0.0973
      5 C5          1.2082   -0.6847   -0.0132 C.ar      1 <0>        -0.0884
      6 C6          0.0021   -0.0041    0.0020 C.ar      1 <0>        -0.1148
      7 C7          1.4958   -2.1708   -0.0245 C.3       1 <0>        -0.1134
      8 C8          2.9655   -2.2943   -0.4796 C.3       1 <0>         0.0986
      9 H1          3.4603   -3.1218    0.0288 H         1 <0>         0.0818
     10 C9          3.5639   -0.9420   -0.0373 C.3       1 <0>         0.1901
     11 H2          4.3177   -0.6104   -0.7514 H         1 <0>         0.1037
     12 N1          4.1467   -1.0577    1.3018 N.am      1 <0>        -0.7149
     13 C10         5.0896   -0.1829    1.7042 C.2       1 <0>         0.6164
     14 O1          5.4570    0.7032    0.9552 O.2       1 <0>        -0.5591
     15 C11         5.6732   -0.2987    3.0449 C.2       1 <0>        -0.1008
     16 C12         6.6364    0.5246    3.5883 C.2       1 <0>        -0.1206
     17 C13         6.8977    0.0547    4.8792 C.2       1 <0>        -0.1890
     18 C14         6.1072   -1.0234    5.0970 C.2       1 <0>         0.0313
     19 N2          5.3545   -1.2454    3.9919 N.2       1 <0>        -0.4979
     20 N3          7.8669    0.6324    5.8372 N.pl3     1 <0>         0.0884
     21 O2          8.5199    1.6012    5.5264 O.2       1 <0>        -0.2297
     22 O3          8.0054    0.1355    6.9306 O.3       1 <0>        -0.2291
     23 O4          3.0467   -2.4507   -1.8977 O.3       1 <0>        -0.5525
     24 H3         -0.9588    1.9046    0.0259 H         1 <0>         0.1213
     25 H4          1.1591    3.1629    0.0076 H         1 <0>         0.1227
     26 H5          3.3036    1.9584   -0.0192 H         1 <0>         0.1272
     27 H6         -0.9268   -0.5550    0.0083 H         1 <0>         0.1170
     28 H7          1.3732   -2.5874    0.9752 H         1 <0>         0.0912
     29 H8          0.8376   -2.6780   -0.7299 H         1 <0>         0.0823
     30 H9          3.8539   -1.7639    1.8988 H         1 <0>         0.4071
     31 H10         7.1017    1.3724    3.1075 H         1 <0>         0.1235
     32 H11         6.0783   -1.6081    6.0045 H         1 <0>         0.1487
     33 H12         2.6090   -3.2458   -2.2314 H         1 <0>         0.3810
@<TRIPOS>BOND
     1    1    6 ar
     2    1    2 ar
     3    1   24 1
     4    2    3 ar
     5    2   25 1
     6    3    4 ar
     7    3   26 1
     8    4   10 1
     9    4    5 ar
    10    5    6 ar
    11    5    7 1
    12    6   27 1
    13    7    8 1
    14    7   28 1
    15    7   29 1
    16    8    9 1
    17    8   10 1
    18    8   23 1
    19   10   11 1
    20   10   12 1
    21   12   13 am
    22   12   30 1
    23   13   14 2
    24   13   15 1
    25   15   19 1
    26   15   16 2
    27   16   17 1
    28   16   31 1
    29   17   18 2
    30   17   20 1
    31   18   19 1
    32   18   32 1
    33   20   21 2
    34   20   22 1
    35   23   33 1
@<TRIPOS>MOLECULE
ZINC06564886
   26    27     0     0     0
SMALL
USER_CHARGES

@<TRIPOS>ATOM
      1 C1         -0.0491    1.4230   -0.0044 C.3       1 <0>         0.0475
      2 O1         -0.0157   -0.0056   -0.0059 O.3       1 <0>        -0.3352
      3 C2          0.5887   -0.6033   -1.0545 C.2       1 <0>         0.6405
      4 O2          1.0742    0.0723   -1.9437 O.2       1 <0>        -0.6223
      5 N1          0.6542   -1.9368   -1.1168 N.2       1 <0>        -0.6450
      6 C3          1.1546   -2.5271   -2.1956 C.2       1 <0>         0.6701
      7 N2          1.7351   -1.8874   -3.2464 N.pl3     1 <0>        -0.6091
      8 H1          1.8527   -0.9285   -3.3335 H         1 <0>         0.4520
      9 C4          2.1314   -2.8451   -4.1751 C.ar      1 <0>         0.1214
     10 C5          2.7614   -2.7638   -5.4084 C.ar      1 <0>        -0.1192
     11 C6          3.0328   -3.9160   -6.1196 C.ar      1 <0>         0.0013
     12 C7          2.6785   -5.1523   -5.6075 C.ar      1 <0>        -0.6122
     13 C8          2.0510   -5.2440   -4.3808 C.ar      1 <0>         0.0109
     14 C9          1.7743   -4.0925   -3.6582 C.ar      1 <0>         0.0598
     15 N3          1.1735   -3.8681   -2.4231 N.pl3     1 <0>        -0.5796
     16 S1          3.0291   -6.6151   -6.5250 S.o2      1 <0>         2.5752
     17 O3          4.1989   -6.3467   -7.2858 O.2       1 <0>        -0.9192
     18 O4          2.9480   -7.6983   -5.6089 O.2       1 <0>        -0.9227
     19 S2          1.5017   -6.8685   -7.8687 S.3       1 <0>        -1.3370
     20 H2          0.9697    1.8103   -0.0150 H         1 <0>         0.0576
     21 H3         -0.5808    1.7749   -0.8884 H         1 <0>         0.0578
     22 H4         -0.5617    1.7735    0.8915 H         1 <0>         0.1020
     23 H5          0.8257   -4.5505   -1.8279 H         1 <0>         0.4495
     24 H6          3.0388   -1.8011   -5.8118 H         1 <0>         0.1439
     25 H7          3.5233   -3.8523   -7.0797 H         1 <0>         0.1555
     26 H8          1.7765   -6.2104   -3.9844 H         1 <0>         0.1563
@<TRIPOS>BOND
     1    1    2 1
     2    1   20 1
     3    1   21 1
     4    1   22 1
     5    2    3 1
     6    3    4 2
     7    3    5 1
     8    5    6 2
     9    6   15 1
    10    6    7 1
    11    7    9 1
    12    7    8 1
    13    9   10 ar
    14    9   14 ar
    15   10   11 ar
    16   10   24 1
    17   11   12 ar
    18   11   25 1
    19   12   13 ar
    20   12   16 1
    21   13   14 ar
    22   13   26 1
    23   14   15 1
    24   15   23 1
    25   16   17 2
    26   16   18 2
    27   16   19 1
@<TRIPOS>MOLECULE
ZINC64069970
   33    35     0     0     0
SMALL
USER_CHARGES

@<TRIPOS>ATOM
      1 C1         -0.0187    1.5258    0.0104 C.3       1 <0>        -0.1581
      2 C2          0.0021   -0.0041    0.0020 C.3       1 <0>         0.2158
      3 H1          0.4986   -0.3725   -0.8957 H         1 <0>         0.0798
      4 C3         -1.4056   -0.5527    0.0909 C.2       1 <0>        -0.2332
      5 H2         -0.1293   -1.7369    2.7316 H         1 <0>         0.4235
      6 C4         -1.4737   -1.2770    1.2241 C.2       1 <0>         0.1647
      7 N1         -0.2884   -1.2751    1.8935 N.pl3     1 <0>        -0.5405
      8 N2          0.6732   -0.5163    1.2085 N.pl3     1 <0>        -0.4371
      9 C5          1.9988   -0.2909    1.5921 C.ar      1 <0>         0.2473
     10 C6          2.8275    0.4947    0.8017 C.ar      1 <0>        -0.1685
     11 C7          4.1365    0.7160    1.1826 C.ar      1 <0>        -0.0931
     12 C8          4.6229    0.1549    2.3513 C.ar      1 <0>         0.0207
     13 C9          3.7986   -0.6290    3.1407 C.ar      1 <0>        -0.0962
     14 C10         2.4869   -0.8476    2.7671 C.ar      1 <0>        -0.1821
     15 F1          5.9038    0.3723    2.7217 F         1 <0>        -0.1500
     16 C11        -2.4501   -0.3441   -0.8383 C.2       1 <0>         0.4944
     17 O1         -2.2351    0.4121   -1.9389 O.3       1 <0>        -0.6667
     18 N3         -3.6355   -0.8874   -0.6320 N.2       1 <0>        -0.6740
     19 C12        -4.6340   -0.6881   -1.5203 C.2       1 <0>         0.5238
     20 N4         -5.9008   -1.1805   -1.4315 N.pl3     1 <0>        -0.5276
     21 H3         -6.2608   -1.7383   -0.7242 H         1 <0>         0.4206
     22 N5         -6.5810   -0.7174   -2.5694 N.2       1 <0>        -0.3854
     23 C13        -5.7342   -0.0010   -3.2599 C.2       1 <0>         0.1912
     24 N6         -4.5608    0.0257   -2.6317 N.2       1 <0>        -0.5681
     25 H4          1.0039    1.9031    0.0027 H         1 <0>         0.0515
     26 H5         -0.5459    1.8868   -0.8726 H         1 <0>         0.0917
     27 H6         -0.5289    1.8773    0.9072 H         1 <0>         0.0519
     28 H7         -2.3594   -1.7954    1.5604 H         1 <0>         0.1846
     29 H8          2.4487    0.9319   -0.1103 H         1 <0>         0.1403
     30 H9          4.7814    1.3269    0.5682 H         1 <0>         0.1356
     31 H10         4.1801   -1.0660    4.0517 H         1 <0>         0.1316
     32 H11         1.8428   -1.4549    3.3857 H         1 <0>         0.1229
     33 H12        -5.9533    0.4957   -4.1935 H         1 <0>         0.1887
@<TRIPOS>BOND
     1    1    2 1
     2    1   25 1
     3    1   26 1
     4    1   27 1
     5    2    3 1
     6    2    8 1
     7    2    4 1
     8    4   16 1
     9    4    6 2
    10    5    7 1
    11    6   28 1
    12    6    7 1
    13    7    8 1
    14    8    9 1
    15    9   14 ar
    16    9   10 ar
    17   10   11 ar
    18   10   29 1
    19   11   12 ar
    20   11   30 1
    21   12   13 ar
    22   12   15 1
    23   13   14 ar
    24   13   31 1
    25   14   32 1
    26   16   17 1
    27   16   18 2
    28   18   19 1
    29   19   24 2
    30   19   20 1
    31   20   21 1
    32   20   22 1
    33   22   23 2
    34   23   24 1
    35   23   33 1
@<TRIPOS>MOLECULE
ZINC18198117
   58    62     0     0     0
SMALL
USER_CHARGES
4-[(6S,9R)-8-oxo-6-(3,4,5-trimethoxyphenyl)-5,6,7,9-tetrahydro-4H-[1,2,4]triazolo[5,1-b]quinazolin-9-yl]benzoic acid
@<TRIPOS>ATOM
      1 C1         -1.8727   -1.9743    3.0975 C.3       1 <0>         0.0236
      2 O1         -1.4972   -0.7812    2.4062 O.3       1 <0>        -0.3023
      3 C2         -0.5599    0.0064    2.9983 C.ar      1 <0>         0.1528
      4 C3         -0.0096   -0.3649    4.2158 C.ar      1 <0>        -0.2287
      5 C4          0.9390    0.4378    4.8212 C.ar      1 <0>        -0.0023
      6 C5          1.3472    1.6103    4.2135 C.ar      1 <0>        -0.2220
      7 C6          0.8060    1.9859    2.9933 C.ar      1 <0>         0.1544
      8 C7         -0.1480    1.1816    2.3813 C.ar      1 <0>         0.0261
      9 O2         -0.6816    1.5467    1.1837 O.3       1 <0>        -0.3132
     10 C8         -0.0127    1.0858    0.0080 C.3       1 <0>         0.0353
     11 O3          1.2079    3.1399    2.3964 O.3       1 <0>        -0.3025
     12 C9          2.1916    3.9167    3.0825 C.3       1 <0>         0.0221
     13 C10         1.5302    0.0333    6.1470 C.3       1 <0>        -0.0425
     14 H1          2.2624    0.7757    6.4644 H         1 <0>         0.1029
     15 C11         0.4204   -0.0766    7.1943 C.3       1 <0>        -0.0869
     16 C12         1.0073   -0.5246    8.5120 C.2       1 <0>         0.2431
     17 C13         2.0937   -1.3252    8.5511 C.2       1 <0>        -0.2996
     18 C14         2.7050   -1.7887    9.8552 C.3       1 <0>         0.2770
     19 H2          2.9102   -2.8577    9.7987 H         1 <0>         0.1096
     20 N1          1.7861   -1.5302   10.9563 N.pl3     1 <0>        -0.3753
     21 C15         0.7016   -0.7229   10.8496 C.2       1 <0>         0.4846
     22 N2          0.1026   -0.6974   12.0081 N.2       1 <0>        -0.5489
     23 C16         0.7650   -1.4740   12.8714 C.2       1 <0>         0.2088
     24 N3          1.8006   -2.0032   12.2675 N.2       1 <0>        -0.2866
     25 N4          0.3865   -0.0895    9.6585 N.pl3     1 <0>        -0.6088
     26 C17         3.9933   -1.0441   10.0937 C.ar      1 <0>        -0.1107
     27 C18         3.9817    0.3354   10.2008 C.ar      1 <0>        -0.1155
     28 C19         5.1566    1.0228   10.4247 C.ar      1 <0>        -0.0812
     29 C20         6.3608    0.3243   10.5320 C.ar      1 <0>        -0.0991
     30 C21         6.3659   -1.0673   10.4173 C.ar      1 <0>        -0.0876
     31 C22         5.1831   -1.7425   10.1990 C.ar      1 <0>        -0.0963
     32 C23         7.6237    1.0542   10.7653 C.2       1 <0>         0.4880
     33 O4          8.6698    0.4438   10.8578 O.co2     1 <0>        -0.6284
     34 C24         2.7109   -1.7626    7.3650 C.2       1 <0>         0.4096
     35 O5          3.6735   -2.5012    7.4333 O.2       1 <0>        -0.4519
     36 C25         2.2058   -1.3358    6.0149 C.3       1 <0>        -0.1458
     37 H3         -2.6255   -2.5084    2.5178 H         1 <0>         0.1025
     38 H4         -0.9966   -2.6094    3.2282 H         1 <0>         0.0582
     39 H5         -2.2824   -1.7149    4.0737 H         1 <0>         0.0583
     40 H6         -0.3256   -1.2805    4.6936 H         1 <0>         0.1363
     41 H7          2.0888    2.2346    4.6895 H         1 <0>         0.1401
     42 H8          0.0021   -0.0041    0.0020 H         1 <0>         0.0439
     43 H9          1.0099    1.4631    0.0003 H         1 <0>         0.0447
     44 H10        -0.5399    1.4469   -0.8751 H         1 <0>         0.0915
     45 H11         2.4221    4.8083    2.4994 H         1 <0>         0.1039
     46 H12         1.8063    4.2107    4.0589 H         1 <0>         0.0604
     47 H13         3.0969    3.3237    3.2128 H         1 <0>         0.0605
     48 H14        -0.0562    0.8954    7.3212 H         1 <0>         0.1014
     49 H15        -0.3210   -0.8035    6.8622 H         1 <0>         0.1081
     50 H16         0.4903   -1.6391   13.9027 H         1 <0>         0.2244
     51 H17        -0.2528    0.6396    9.6344 H         1 <0>         0.4380
     52 H18         3.0502    0.8748   10.1132 H         1 <0>         0.1015
     53 H19         5.1455    2.0992   10.5125 H         1 <0>         0.1297
     54 H20         7.2940   -1.6136   10.4989 H         1 <0>         0.1299
     55 H21         5.1857   -2.8188   10.1097 H         1 <0>         0.1191
     56 H22         1.5432   -2.0030    5.6744 H         1 <0>         0.0941
     57 H23         3.0413   -1.2649    5.3184 H         1 <0>         0.1055
     58 O6          7.6152    2.3968   10.8755 O.co2     1 <0>        -0.7539
@<TRIPOS>BOND
     1    1    2 1
     2    1   37 1
     3    1   38 1
     4    1   39 1
     5    2    3 1
     6    3    8 ar
     7    3    4 ar
     8    4    5 ar
     9    4   40 1
    10    5    6 ar
    11    5   13 1
    12    6    7 ar
    13    6   41 1
    14    7    8 ar
    15    7   11 1
    16    8    9 1
    17    9   10 1
    18   10   42 1
    19   10   43 1
    20   10   44 1
    21   11   12 1
    22   12   45 1
    23   12   46 1
    24   12   47 1
    25   13   14 1
    26   13   36 1
    27   13   15 1
    28   15   16 1
    29   15   48 1
    30   15   49 1
    31   16   25 1
    32   16   17 2
    33   17   18 1
    34   17   34 1
    35   18   19 1
    36   18   20 1
    37   18   26 1
    38   20   24 1
    39   20   21 1
    40   21   22 2
    41   21   25 1
    42   22   23 1
    43   23   24 2
    44   23   50 1
    45   25   51 1
    46   26   31 ar
    47   26   27 ar
    48   27   28 ar
    49   27   52 1
    50   28   29 ar
    51   28   53 1
    52   29   30 ar
    53   29   32 1
    54   30   31 ar
    55   30   54 1
    56   31   55 1
    57   32   33 2
    58   32   58 1
    59   34   35 2
    60   34   36 1
    61   36   56 1
    62   36   57 1
@<TRIPOS>MOLECULE
ZINC22972875
   52    56     0     0     0
SMALL
USER_CHARGES
N-[5-(4-allyl-5-thioxo-1H-1,2,4-triazol-3-yl)-4-methyl-thiazol-2-yl]-1-(4-fluorophenyl)-5,6-dihydro-4H-cyclopenta[d]pyrazole-3-carboxamide
@<TRIPOS>ATOM
      1 C1          0.1902   -5.9111   -1.0578 C.3       1 <0>        -0.0955
      2 C2          0.2275   -4.9787    0.1255 C.2       1 <0>         0.1191
      3 C3         -0.2546   -3.6973    0.0300 C.2       1 <0>        -0.1185
      4 S1          0.0567   -3.1034    1.6864 S.3       1 <0>         0.0843
      5 C4          0.7585   -4.5594    2.3210 C.2       1 <0>         0.2894
      6 N1          0.7217   -5.3690    1.2779 N.2       1 <0>        -0.5025
      7 N2          1.2411   -4.8073    3.5971 N.am      1 <0>        -0.6204
      8 C5          1.7604   -6.0139    3.8986 C.2       1 <0>         0.6014
      9 O1          1.8057   -6.8851    3.0516 O.2       1 <0>        -0.4559
     10 C6          2.2742   -6.2777    5.2569 C.2       1 <0>         0.0228
     11 C7          2.8392   -7.4879    5.7223 C.2       1 <0>        -0.1473
     12 C8          3.1670   -7.2682    7.0138 C.2       1 <0>        -0.0169
     13 N3          2.8054   -5.9892    7.3040 N.pl3     1 <0>        -0.2150
     14 N4          2.2882   -5.4313    6.2687 N.2       1 <0>        -0.2527
     15 C9          2.9730   -5.3703    8.5503 C.ar      1 <0>         0.1183
     16 C10         2.8282   -6.1079    9.7178 C.ar      1 <0>        -0.0855
     17 C11         2.9994   -5.4977   10.9446 C.ar      1 <0>        -0.1337
     18 C12         3.3041   -4.1483   11.0114 C.ar      1 <0>         0.1083
     19 C13         3.4433   -3.4097    9.8482 C.ar      1 <0>        -0.1344
     20 C14         3.2785   -4.0176    8.6192 C.ar      1 <0>        -0.0712
     21 F1          3.4652   -3.5517   12.2127 F         1 <0>        -0.1312
     22 C15         3.7898   -8.5096    7.6121 C.3       1 <0>        -0.0424
     23 C16         4.1989   -9.3766    6.4007 C.3       1 <0>        -0.1092
     24 C17         3.2152   -8.8912    5.3124 C.3       1 <0>        -0.0477
     25 C18        -0.8558   -3.0024   -1.1203 C.2       1 <0>         0.2504
     26 N5         -1.0429   -3.5130   -2.3083 N.2       1 <0>        -0.2966
     27 N6         -1.6383   -2.5316   -3.1126 N.2       1 <0>        -0.3734
     28 C19        -1.8002   -1.4278   -2.3547 C.2       1 <0>         0.3967
     29 S2         -2.4904    0.0540   -2.8634 S.3       1 <0>        -0.7654
     30 N7         -1.3176   -1.6997   -1.1260 N.pl3     1 <0>        -0.4967
     31 C20        -1.2926   -0.7753    0.0102 C.3       1 <0>         0.1425
     32 C21         0.0021   -0.0041    0.0020 C.2       1 <0>        -0.1758
     33 C22        -0.0157    1.3058    0.0092 C.2       1 <0>        -0.1564
     34 H1         -0.2586   -5.3935   -1.9184 H         1 <0>         0.1109
     35 H2         -0.4121   -6.7969   -0.8077 H         1 <0>         0.0713
     36 H3          1.2141   -6.2234   -1.3109 H         1 <0>         0.0712
     37 H4          1.2001   -4.0192    4.3634 H         1 <0>         0.4571
     38 H5          2.5862   -7.1592    9.6662 H         1 <0>         0.1434
     39 H6          2.8912   -6.0721   11.8528 H         1 <0>         0.1496
     40 H7          3.6805   -2.3574    9.9022 H         1 <0>         0.1501
     41 H8          3.3868   -3.4411    7.7124 H         1 <0>         0.1489
     42 H9          4.6612   -8.2258    8.2206 H         1 <0>         0.0800
     43 H10         3.0509   -9.0214    8.2462 H         1 <0>         0.0880
     44 H11         5.2516   -9.1810    6.1487 H         1 <0>         0.0796
     45 H12         4.0735  -10.4402    6.6519 H         1 <0>         0.0879
     46 H13         2.3112   -9.5167    5.2745 H         1 <0>         0.0866
     47 H14         3.6876   -8.8690    4.3193 H         1 <0>         0.0864
     48 H15        -2.1371   -0.0749   -0.0684 H         1 <0>         0.1100
     49 H16        -1.3744   -1.3445    0.9479 H         1 <0>         0.0780
     50 H17         0.9621   -0.5410   -0.0100 H         1 <0>         0.1063
     51 H18         0.9293    1.8687    0.0032 H         1 <0>         0.0991
     52 H19        -0.9757    1.8427    0.0212 H         1 <0>         0.1064
@<TRIPOS>BOND
     1    1    2 1
     2    1   34 1
     3    1   35 1
     4    1   36 1
     5    2    6 1
     6    2    3 2
     7    3    4 1
     8    3   25 1
     9    4    5 1
    10    5    6 2
    11    5    7 1
    12    7    8 am
    13    7   37 1
    14    8    9 2
    15    8   10 1
    16   10   14 2
    17   10   11 1
    18   11   24 1
    19   11   12 2
    20   12   13 1
    21   12   22 1
    22   13   14 1
    23   13   15 1
    24   15   20 ar
    25   15   16 ar
    26   16   17 ar
    27   16   38 1
    28   17   18 ar
    29   17   39 1
    30   18   19 ar
    31   18   21 1
    32   19   20 ar
    33   19   40 1
    34   20   41 1
    35   22   23 1
    36   22   42 1
    37   22   43 1
    38   23   24 1
    39   23   44 1
    40   23   45 1
    41   24   46 1
    42   24   47 1
    43   25   30 1
    44   25   26 2
    45   26   27 1
    46   27   28 2
    47   28   29 1
    48   28   30 1
    49   30   31 1
    50   31   32 1
    51   31   48 1
    52   31   49 1
    53   32   33 2
    54   32   50 1
    55   33   51 1
    56   33   52 1
@<TRIPOS>MOLECULE
ZINC36053433
   62    65     0     0     0
SMALL
USER_CHARGES

@<TRIPOS>ATOM
      1 C1          0.0581    1.8869    0.1867 C.3       1 <0>        -0.0912
      2 C2          0.0507    0.3803    0.1553 C.2       1 <0>         0.3076
      3 C3         -1.1519   -0.2996    0.1269 C.2       1 <0>        -0.3904
      4 C4         -1.1069   -1.8110    0.0955 C.3       1 <0>         0.2772
      5 H1         -1.6346   -2.1439   -0.7983 H         1 <0>         0.0691
      6 N1          0.2369   -2.4482    0.0977 N.pl3     1 <0>        -0.5049
      7 C5          0.5155   -3.8002    0.0720 C.2       1 <0>         0.2348
      8 C6          1.8144   -4.1728    0.0789 C.2       1 <0>        -0.3085
      9 S1          2.6491   -2.5993    0.1222 S.3       1 <0>         0.1229
     10 C7          1.3043   -1.5950    0.1283 C.2       1 <0>         0.3419
     11 N2          1.1958   -0.2825    0.1497 N.2       1 <0>        -0.5944
     12 C8         -0.5625   -4.7989    0.0387 C.2       1 <0>        -0.4647
     13 C9         -0.2703   -6.1092    0.1475 C.2       1 <0>         0.5000
     14 O1          1.0225   -6.5150    0.1771 O.3       1 <0>        -0.7071
     15 N3         -1.2907   -7.0417    0.2291 N.pl3     1 <0>        -0.7509
     16 C10        -0.9757   -8.4540    0.4582 C.3       1 <0>         0.1461
     17 C11        -2.2603   -9.2817    0.3829 C.3       1 <0>         0.0688
     18 H2         -2.7283   -9.1646   -0.5946 H         1 <0>         0.0716
     19 C12        -1.9544  -10.7756    0.6572 C.3       1 <0>        -0.1481
     20 C13        -3.3353  -11.2706    1.1671 C.3       1 <0>        -0.1551
     21 C14        -3.8683  -10.0339    1.9221 C.3       1 <0>         0.0500
     22 O2         -3.1700   -8.8860    1.4218 O.3       1 <0>        -0.3732
     23 C15        -1.8642   -2.3226    1.2937 C.ar      1 <0>        -0.1396
     24 C16        -3.1169   -2.8829    1.1311 C.ar      1 <0>        -0.0056
     25 C17        -3.8137   -3.3529    2.2276 C.ar      1 <0>        -0.2439
     26 C18        -3.2567   -3.2633    3.4957 C.ar      1 <0>         0.1624
     27 C19        -2.0003   -2.7017    3.6615 C.ar      1 <0>        -0.2475
     28 C20        -1.3006   -2.2359    2.5587 C.ar      1 <0>         0.1902
     29 O3         -0.0661   -1.6903    2.7173 O.3       1 <0>        -0.2975
     30 C21         0.4968   -1.7298    4.0301 C.3       1 <0>         0.0289
     31 O4         -3.9427   -3.7253    4.5740 O.3       1 <0>        -0.3208
     32 C22        -5.2318   -4.2911    4.3290 C.3       1 <0>         0.0304
     33 C23        -2.3716    0.3879    0.1276 C.2       1 <0>         0.5348
     34 O5         -2.3883    1.5993    0.2604 O.2       1 <0>        -0.5540
     35 O6         -3.5304   -0.2917   -0.0190 O.3       1 <0>        -0.3585
     36 C24        -4.7372    0.4736   -0.0089 C.3       1 <0>         0.0423
     37 H3          1.0875    2.2450    0.2015 H         1 <0>         0.0621
     38 H4         -0.4476    2.2713   -0.6990 H         1 <0>         0.0810
     39 H5         -0.4602    2.2342    1.0805 H         1 <0>         0.0863
     40 H6          2.2370   -5.1666    0.0630 H         1 <0>         0.2343
     41 H7         -1.5889   -4.4820   -0.0731 H         1 <0>         0.0861
     42 H8         -2.2140   -6.7598    0.1345 H         1 <0>         0.3877
     43 H9         -0.2764   -8.7985   -0.3036 H         1 <0>         0.0665
     44 H10        -0.5256   -8.5706    1.4440 H         1 <0>         0.0510
     45 H11        -1.6654  -11.2920   -0.2582 H         1 <0>         0.0838
     46 H12        -1.1895  -10.8852    1.4260 H         1 <0>         0.0820
     47 H13        -3.9880  -11.5265    0.3324 H         1 <0>         0.0745
     48 H14        -3.2184  -12.1174    1.8433 H         1 <0>         0.0798
     49 H15        -4.9373   -9.9226    1.7412 H         1 <0>         0.0637
     50 H16        -3.6824  -10.1445    2.9904 H         1 <0>         0.0658
     51 H17        -3.5522   -2.9532    0.1452 H         1 <0>         0.1273
     52 H18        -4.7927   -3.7900    2.0980 H         1 <0>         0.1235
     53 H19        -1.5652   -2.6311    4.6474 H         1 <0>         0.1286
     54 H20         1.4442   -1.1908    4.0355 H         1 <0>         0.0957
     55 H21        -0.1911   -1.2624    4.7346 H         1 <0>         0.0510
     56 H22         0.6668   -2.7662    4.3216 H         1 <0>         0.0544
     57 H23        -5.8767   -3.5410    3.8710 H         1 <0>         0.0527
     58 H24        -5.1327   -5.1439    3.6575 H         1 <0>         0.0569
     59 H25        -5.6695   -4.6198    5.2716 H         1 <0>         0.0941
     60 H26        -5.5908   -0.1923   -0.1351 H         1 <0>         0.0879
     61 H27        -4.8250    1.0009    0.9410 H         1 <0>         0.0498
     62 H28        -4.7161    1.1960   -0.8248 H         1 <0>         0.0504
@<TRIPOS>BOND
     1    1    2 1
     2    1   37 1
     3    1   38 1
     4    1   39 1
     5    2   11 1
     6    2    3 2
     7    3    4 1
     8    3   33 1
     9    4    5 1
    10    4    6 1
    11    4   23 1
    12    6   10 1
    13    6    7 1
    14    7    8 2
    15    7   12 1
    16    8    9 1
    17    8   40 1
    18    9   10 1
    19   10   11 2
    20   12   13 2
    21   12   41 1
    22   13   14 1
    23   13   15 1
    24   15   16 1
    25   15   42 1
    26   16   17 1
    27   16   43 1
    28   16   44 1
    29   17   18 1
    30   17   22 1
    31   17   19 1
    32   19   20 1
    33   19   45 1
    34   19   46 1
    35   20   21 1
    36   20   47 1
    37   20   48 1
    38   21   22 1
    39   21   49 1
    40   21   50 1
    41   23   28 ar
    42   23   24 ar
    43   24   25 ar
    44   24   51 1
    45   25   26 ar
    46   25   52 1
    47   26   27 ar
    48   26   31 1
    49   27   28 ar
    50   27   53 1
    51   28   29 1
    52   29   30 1
    53   30   54 1
    54   30   55 1
    55   30   56 1
    56   31   32 1
    57   32   57 1
    58   32   58 1
    59   32   59 1
    60   33   34 2
    61   33   35 1
    62   35   36 1
    63   36   60 1
    64   36   61 1
    65   36   62 1
@<TRIPOS>MOLECULE
ZINC39732256
   58    61     0     0     0
SMALL
USER_CHARGES

@<TRIPOS>ATOM
      1 C1         -0.5445    0.3290   -0.0248 C.3       1 <0>        -0.1532
      2 C2         -0.3059   -1.1639   -0.2591 C.3       1 <0>         0.0576
      3 O1          0.4922   -1.3405   -1.4313 O.3       1 <0>        -0.3536
      4 C3          0.7942   -2.6014   -1.7786 C.2       1 <0>         0.4658
      5 O2          0.3943   -3.5246   -1.1096 O.2       1 <0>        -0.4796
      6 C4          1.6322   -2.8656   -3.0030 C.3       1 <0>        -0.0563
      7 H1          1.1277   -2.4504   -3.8754 H         1 <0>         0.1413
      8 C5          3.0051   -2.1714   -2.8352 C.3       1 <0>         0.1773
      9 H2          3.0287   -1.2045   -3.3380 H         1 <0>         0.1394
     10 S1          4.0537   -3.4114   -3.7044 S.3       1 <0>        -0.0705
     11 C6          2.9699   -4.8129   -3.5598 C.2       1 <0>        -0.0989
     12 C7          1.7835   -4.3549   -3.1842 C.2       1 <0>        -0.1518
     13 C8          0.6139   -5.3080   -2.9467 C.3       1 <0>        -0.0563
     14 C9          0.9013   -6.6378   -3.6423 C.3       1 <0>        -0.1213
     15 C10         2.2769   -7.1546   -3.2091 C.3       1 <0>        -0.1168
     16 C11         3.3467   -6.2452   -3.8169 C.3       1 <0>        -0.0494
     17 N1          3.3758   -2.0469   -1.4233 N.am      1 <0>        -0.7244
     18 C12         4.6265   -2.3535   -1.0255 C.2       1 <0>         0.5320
     19 O3          5.4450   -2.7325   -1.8362 O.2       1 <0>        -0.4728
     20 C13         5.0078   -2.2255    0.4268 C.3       1 <0>        -0.1537
     21 S2          6.7435   -2.7073    0.6410 S.3       1 <0>         0.0639
     22 C14         7.0319   -2.5059    2.3675 C.2       1 <0>         0.0595
     23 N2          6.1594   -2.1032    3.2610 N.2       1 <0>        -0.2486
     24 N3          6.6985   -2.0684    4.4281 N.2       1 <0>        -0.3402
     25 C15         7.9597   -2.4502    4.3511 C.2       1 <0>         0.4456
     26 N4          8.2039   -2.7455    3.0270 N.pl3     1 <0>        -0.4357
     27 C16         9.4405   -3.1781    2.6354 C.2       1 <0>         0.1332
     28 C17        10.4130   -3.3130    3.5639 C.2       1 <0>        -0.2167
     29 C18        10.1312   -3.0055    4.9124 C.2       1 <0>         0.4548
     30 O4         11.0998   -3.1379    5.8496 O.3       1 <0>        -0.6739
     31 N5          8.9338   -2.5847    5.2636 N.2       1 <0>        -0.5755
     32 C19         9.7149   -3.5001    1.1890 C.3       1 <0>        -0.0581
     33 C20         9.9068   -2.2005    0.4047 C.3       1 <0>        -0.1451
     34 C21        10.9835   -4.3493    1.0873 C.3       1 <0>        -0.1427
     35 H3          0.4126    0.8335    0.1079 H         1 <0>         0.0696
     36 H4         -1.0629    0.7535   -0.8846 H         1 <0>         0.0664
     37 H5         -1.1532    0.4637    0.8693 H         1 <0>         0.0817
     38 H6          0.2125   -1.5884    0.6007 H         1 <0>         0.0720
     39 H7         -1.2629   -1.6684   -0.3918 H         1 <0>         0.0694
     40 H8          0.4919   -5.4756   -1.8766 H         1 <0>         0.0928
     41 H9         -0.2988   -4.8734   -3.3546 H         1 <0>         0.0650
     42 H10         0.1370   -7.3645   -3.3668 H         1 <0>         0.0674
     43 H11         0.8916   -6.4923   -4.7225 H         1 <0>         0.0635
     44 H12         2.3497   -7.1350   -2.1217 H         1 <0>         0.0688
     45 H13         2.4155   -8.1738   -3.5699 H         1 <0>         0.0720
     46 H14         3.4120   -6.4186   -4.8910 H         1 <0>         0.0838
     47 H15         4.3087   -6.4591   -3.3512 H         1 <0>         0.0855
     48 H16         2.7212   -1.7438   -0.7749 H         1 <0>         0.4044
     49 H17         4.8754   -1.1922    0.7476 H         1 <0>         0.1206
     50 H18         4.3732   -2.8767    1.0279 H         1 <0>         0.1168
     51 H19        11.3969   -3.6535    3.2769 H         1 <0>         0.1489
     52 H20         8.8727   -4.0539    0.7740 H         1 <0>         0.0920
     53 H21        10.8097   -1.6974    0.7506 H         1 <0>         0.0582
     54 H22        10.0017   -2.4277   -0.6572 H         1 <0>         0.0679
     55 H23         9.0459   -1.5508    0.5618 H         1 <0>         0.0655
     56 H24        10.8896   -5.2217    1.7340 H         1 <0>         0.0624
     57 H25        11.1213   -4.6746    0.0562 H         1 <0>         0.0649
     58 H26        11.8434   -3.7566    1.3994 H         1 <0>         0.0649
@<TRIPOS>BOND
     1    1    2 1
     2    1   35 1
     3    1   36 1
     4    1   37 1
     5    2    3 1
     6    2   38 1
     7    2   39 1
     8    3    4 1
     9    4    5 2
    10    4    6 1
    11    6    7 1
    12    6   12 1
    13    6    8 1
    14    8    9 1
    15    8   10 1
    16    8   17 1
    17   10   11 1
    18   11   16 1
    19   11   12 2
    20   12   13 1
    21   13   14 1
    22   13   40 1
    23   13   41 1
    24   14   15 1
    25   14   42 1
    26   14   43 1
    27   15   16 1
    28   15   44 1
    29   15   45 1
    30   16   46 1
    31   16   47 1
    32   17   18 am
    33   17   48 1
    34   18   19 2
    35   18   20 1
    36   20   21 1
    37   20   49 1
    38   20   50 1
    39   21   22 1
    40   22   26 1
    41   22   23 2
    42   23   24 1
    43   24   25 2
    44   25   31 1
    45   25   26 1
    46   26   27 1
    47   27   28 2
    48   27   32 1
    49   28   29 1
    50   28   51 1
    51   29   30 1
    52   29   31 2
    53   32   33 1
    54   32   34 1
    55   32   52 1
    56   33   53 1
    57   33   54 1
    58   33   55 1
    59   34   56 1
    60   34   57 1
    61   34   58 1
@<TRIPOS>MOLECULE
ZINC20189093
   67    70     0     0     0
SMALL
USER_CHARGES

@<TRIPOS>ATOM
      1 C1         -5.6631   -6.2811   -0.4951 C.3       1 <0>        -0.1478
      2 C2         -4.2114   -5.8057   -0.4070 C.3       1 <0>         0.0519
      3 O1         -4.1767   -4.3772   -0.4155 O.3       1 <0>        -0.3076
      4 C3         -2.9503   -3.7895   -0.4159 C.ar      1 <0>         0.1085
      5 C4         -1.8071   -4.5682   -0.4985 C.ar      1 <0>        -0.1611
      6 C5         -0.5613   -3.9692   -0.4993 C.ar      1 <0>        -0.0349
      7 C6         -0.4523   -2.5934   -0.4172 C.ar      1 <0>        -0.1404
      8 C7         -1.5888   -1.8107   -0.3341 C.ar      1 <0>        -0.1052
      9 C8         -2.8408   -2.4044   -0.3391 C.ar      1 <0>         0.0623
     10 O2         -3.9599   -1.6355   -0.2634 O.3       1 <0>        -0.4877
     11 C9          0.6809   -4.8177   -0.5892 C.3       1 <0>         0.2500
     12 H1          1.5650   -4.2086   -0.4008 H         1 <0>         0.0741
     13 C10         0.7737   -5.4601   -1.9536 C.2       1 <0>        -0.4791
     14 C11         0.7559   -6.7984   -1.7570 C.2       1 <0>         0.2758
     15 C12         0.6545   -7.0756   -0.3100 C.2       1 <0>         0.5076
     16 O3          0.6171   -8.1840    0.1866 O.2       1 <0>        -0.5328
     17 N1          0.6111   -5.9189    0.3785 N.am      1 <0>        -0.6088
     18 C13         0.5118   -5.7830    1.8338 C.3       1 <0>         0.1400
     19 C14        -0.9618   -5.7311    2.2418 C.3       1 <0>        -0.1402
     20 C15        -1.0655   -5.5892    3.7617 C.3       1 <0>         0.0606
     21 N2         -2.4804   -5.5394    4.1535 N.3       1 <0>        -0.5334
     22 C16        -3.1477   -6.8210    3.8822 C.3       1 <0>         0.0150
     23 C17        -4.6297   -6.7061    4.2485 C.3       1 <0>         0.0644
     24 O4         -4.7479   -6.3136    5.6187 O.3       1 <0>        -0.3872
     25 C18        -4.1098   -5.0692    5.9181 C.3       1 <0>         0.0642
     26 C19        -2.6224   -5.1675    5.5687 C.3       1 <0>         0.0180
     27 O5          0.8203   -7.7350   -2.7322 O.3       1 <0>        -0.6090
     28 C20         0.8647   -4.7658   -3.2439 C.2       1 <0>         0.4423
     29 O6          0.8265   -5.4023   -4.2821 O.2       1 <0>        -0.4934
     30 C21         1.0013   -3.3090   -3.2830 C.2       1 <0>        -0.1717
     31 C22         0.9767   -2.6600   -4.4673 C.2       1 <0>        -0.0847
     32 C23         1.2363   -1.2130   -4.5186 C.ar      1 <0>        -0.0479
     33 C24         1.6290   -0.5277   -3.3638 C.ar      1 <0>        -0.1097
     34 C25         1.8709    0.8284   -3.4203 C.ar      1 <0>        -0.1200
     35 C26         1.7257    1.5120   -4.6152 C.ar      1 <0>        -0.1261
     36 C27         1.3374    0.8412   -5.7621 C.ar      1 <0>        -0.1218
     37 C28         1.0974   -0.5159   -5.7236 C.ar      1 <0>        -0.1084
     38 H2         -5.6852   -7.3677   -0.5773 H         1 <0>         0.0765
     39 H3         -6.2011   -5.9735    0.4015 H         1 <0>         0.0626
     40 H4         -6.1370   -5.8406   -1.3723 H         1 <0>         0.0659
     41 H5         -3.7637   -6.1746    0.5158 H         1 <0>         0.0591
     42 H6         -3.6516   -6.1879   -1.2606 H         1 <0>         0.0634
     43 H7         -1.8895   -5.6432   -0.5620 H         1 <0>         0.1261
     44 H8          0.5228   -2.1291   -0.4177 H         1 <0>         0.1239
     45 H9         -1.5009   -0.7362   -0.2697 H         1 <0>         0.1297
     46 H10        -4.2589   -1.4639    0.6401 H         1 <0>         0.3781
     47 H11         0.9914   -6.6371    2.3120 H         1 <0>         0.0762
     48 H12         1.0083   -4.8649    2.1477 H         1 <0>         0.0760
     49 H13        -1.4414   -4.8770    1.7636 H         1 <0>         0.0837
     50 H14        -1.4583   -6.6493    1.9279 H         1 <0>         0.0635
     51 H15        -0.5860   -6.4433    4.2399 H         1 <0>         0.0357
     52 H16        -0.5690   -4.6710    4.0756 H         1 <0>         0.0767
     53 H17        -3.0521   -7.0642    2.8240 H         1 <0>         0.0886
     54 H18        -2.6847   -7.6061    4.4800 H         1 <0>         0.0427
     55 H19        -5.1048   -5.9584    3.6134 H         1 <0>         0.0602
     56 H20        -5.1164   -7.6705    4.1030 H         1 <0>         0.0970
     57 H21        -4.5697   -4.2739    5.3316 H         1 <0>         0.0592
     58 H22        -4.2204   -4.8497    6.9801 H         1 <0>         0.0956
     59 H23        -2.1511   -5.9261    6.1935 H         1 <0>         0.0411
     60 H24        -2.1435   -4.2037    5.7416 H         1 <0>         0.0851
     61 H25         1.1218   -2.7531   -2.3650 H         1 <0>         0.1200
     62 H26         0.7664   -3.2034   -5.3766 H         1 <0>         0.1285
     63 H27         1.7421   -1.0594   -2.4306 H         1 <0>         0.1258
     64 H28         2.1741    1.3590   -2.5298 H         1 <0>         0.1209
     65 H29         1.9159    2.5744   -4.6527 H         1 <0>         0.1179
     66 H30         1.2263    1.3817   -6.6905 H         1 <0>         0.1201
     67 H31         0.7985   -1.0385   -6.6203 H         1 <0>         0.1242
@<TRIPOS>BOND
     1    1    2 1
     2    1   38 1
     3    1   39 1
     4    1   40 1
     5    2    3 1
     6    2   41 1
     7    2   42 1
     8    3    4 1
     9    4    9 ar
    10    4    5 ar
    11    5    6 ar
    12    5   43 1
    13    6    7 ar
    14    6   11 1
    15    7    8 ar
    16    7   44 1
    17    8    9 ar
    18    8   45 1
    19    9   10 1
    20   10   46 1
    21   11   12 1
    22   11   17 1
    23   11   13 1
    24   13   14 2
    25   13   28 1
    26   14   15 1
    27   14   27 1
    28   15   16 2
    29   15   17 am
    30   17   18 1
    31   18   19 1
    32   18   47 1
    33   18   48 1
    34   19   20 1
    35   19   49 1
    36   19   50 1
    37   20   21 1
    38   20   51 1
    39   20   52 1
    40   21   26 1
    41   21   22 1
    42   22   23 1
    43   22   53 1
    44   22   54 1
    45   23   24 1
    46   23   55 1
    47   23   56 1
    48   24   25 1
    49   25   26 1
    50   25   57 1
    51   25   58 1
    52   26   59 1
    53   26   60 1
    54   28   29 2
    55   28   30 1
    56   30   31 2
    57   30   61 1
    58   31   32 1
    59   31   62 1
    60   32   37 ar
    61   32   33 ar
    62   33   34 ar
    63   33   63 1
    64   34   35 ar
    65   34   64 1
    66   35   36 ar
    67   35   65 1
    68   36   37 ar
    69   36   66 1
    70   37   67 1
@<TRIPOS>MOLECULE
ZINC20302145
   29    30     0     0     0
SMALL
USER_CHARGES
4-bromo-N-(4-bromo-3-methyl-phenyl)-2,6-dichloro-benzenesulfonamide
@<TRIPOS>ATOM
      1 C1          1.3285   -2.2120    0.2223 C.3       1 <0>        -0.1133
      2 C2          1.3014   -0.7062    0.1698 C.ar      1 <0>        -0.0450
      3 C3          2.4845    0.0031    0.0993 C.ar      1 <0>        -0.1535
      4 C4          2.4588    1.3909    0.0509 C.ar      1 <0>         0.2413
      5 C5          1.2423    2.0615    0.0736 C.ar      1 <0>        -0.2023
      6 C6          0.0628    1.3471    0.1447 C.ar      1 <0>        -0.0644
      7 C7          0.0916   -0.0356    0.1927 C.ar      1 <0>        -0.1507
      8 Br1        -1.5259   -1.0104    0.2893 Br        1 <0>        -0.0945
      9 N1          3.6539    2.1111   -0.0209 N.2       1 <0>        -1.0491
     10 S1          3.8130    3.3444   -1.1145 S.o2      1 <0>         2.5699
     11 O1          2.6801    4.1854   -0.9458 O.2       1 <0>        -1.0148
     12 O2          5.1443    3.8261   -0.9927 O.2       1 <0>        -0.9737
     13 C8          3.6790    2.6356   -2.7221 C.ar      1 <0>        -0.6360
     14 C9          4.7830    2.0474   -3.3129 C.ar      1 <0>         0.0645
     15 C10         4.6766    1.4871   -4.5734 C.ar      1 <0>        -0.1114
     16 C11         3.4691    1.5240   -5.2469 C.ar      1 <0>        -0.0402
     17 C12         2.3666    2.1163   -4.6583 C.ar      1 <0>        -0.1102
     18 C13         2.4714    2.6724   -3.3960 C.ar      1 <0>         0.0573
     19 Cl1         1.0875    3.4159   -2.6572 Cl        1 <0>        -0.0003
     20 Br2         3.3256    0.7639   -6.9725 Br        1 <0>        -0.0334
     21 Cl2         6.3003    2.0075   -2.4705 Cl        1 <0>        -0.0105
     22 H1          2.3713   -2.5611    0.1944 H         1 <0>         0.0624
     23 H2          0.7824   -2.6189   -0.6415 H         1 <0>         0.0658
     24 H3          0.8517   -2.5551    1.1523 H         1 <0>         0.0671
     25 H4          3.4287   -0.5209    0.0821 H         1 <0>         0.1193
     26 H5          1.2192    3.1406    0.0358 H         1 <0>         0.1479
     27 H6         -0.8833    1.8677    0.1582 H         1 <0>         0.1118
     28 H7          5.5374    1.0246   -5.0331 H         1 <0>         0.1481
     29 H8          1.4238    2.1450   -5.1844 H         1 <0>         0.1476
@<TRIPOS>BOND
     1    1    2 1
     2    1   22 1
     3    1   23 1
     4    1   24 1
     5    2    7 ar
     6    2    3 ar
     7    3    4 ar
     8    3   25 1
     9    4    5 ar
    10    4    9 1
    11    5    6 ar
    12    5   26 1
    13    6    7 ar
    14    6   27 1
    15    7    8 1
    16    9   10 1
    17   10   11 2
    18   10   12 2
    19   10   13 1
    20   13   18 ar
    21   13   14 ar
    22   14   15 ar
    23   14   21 1
    24   15   16 ar
    25   15   28 1
    26   16   17 ar
    27   16   20 1
    28   17   18 ar
    29   17   29 1
    30   18   19 1
@<TRIPOS>MOLECULE
ZINC09223186
   62    68     0     0     0
SMALL
USER_CHARGES
(E)-3-[3-(1-adamantyl)-1-phenyl-pyrazol-4-yl]-2-(4-oxo-1H-quinazolin-2-yl)prop-2-enenitrile
@<TRIPOS>ATOM
      1 C1         -7.2745   -5.9163   -0.2782 C.ar      1 <0>        -0.1310
      2 C2         -8.0081   -4.7452   -0.3304 C.ar      1 <0>        -0.0982
      3 C3         -7.3651   -3.5235   -0.2906 C.ar      1 <0>        -0.1178
      4 C4         -5.9806   -3.4719   -0.1981 C.ar      1 <0>         0.1606
      5 C5         -5.2464   -4.6496   -0.1516 C.ar      1 <0>        -0.1387
      6 C6         -5.8956   -5.8682   -0.1860 C.ar      1 <0>        -0.0908
      7 N1         -5.3253   -2.2341   -0.1575 N.pl3     1 <0>        -0.3127
      8 C7         -3.9951   -2.0522   -0.0754 C.2       1 <0>         0.0749
      9 C8         -3.7665   -0.6842   -0.0583 C.2       1 <0>        -0.2142
     10 C9         -5.0317   -0.0514   -0.1447 C.2       1 <0>         0.1340
     11 N2         -5.9447   -0.9804   -0.2027 N.2       1 <0>        -0.2877
     12 C10        -5.2786    1.4351   -0.1666 C.3       1 <0>         0.0301
     13 C11        -4.5694    2.0521   -1.3737 C.3       1 <0>        -0.1048
     14 C12        -4.8199    3.5613   -1.3959 C.3       1 <0>        -0.0825
     15 C13        -6.3233    3.8272   -1.4967 C.3       1 <0>        -0.1087
     16 C14        -7.0325    3.2102   -0.2896 C.3       1 <0>        -0.0849
     17 C15        -6.7819    1.7010   -0.2674 C.3       1 <0>        -0.0947
     18 C16        -6.4889    3.8364    0.9962 C.3       1 <0>        -0.1087
     19 C17        -4.9856    3.5704    1.0971 C.3       1 <0>        -0.0822
     20 C18        -4.2764    4.1875   -0.1101 C.3       1 <0>        -0.1137
     21 C19        -4.7350    2.0613    1.1193 C.3       1 <0>        -0.1070
     22 C20        -2.4653   -0.0203    0.0264 C.2       1 <0>         0.0536
     23 C21        -1.3118   -0.7256   -0.2481 C.2       1 <0>        -0.0282
     24 C22        -1.3935   -2.0616   -0.7569 C.1       1 <0>         0.2927
     25 N3         -1.4583   -3.1215   -1.1606 N.1       1 <0>        -0.4508
     26 C23         0.0004   -0.1059   -0.0185 C.ar      1 <0>         0.4219
     27 N4          1.1209   -0.8296   -0.2994 N.ar      1 <0>        -0.6371
     28 C24         2.3738   -0.2816   -0.0963 C.ar      1 <0>         0.1935
     29 C25         3.5353   -0.9898   -0.3720 C.ar      1 <0>        -0.1516
     30 C26         4.7632   -0.4006   -0.1535 C.ar      1 <0>        -0.0860
     31 C27         4.8490    0.8937    0.3388 C.ar      1 <0>        -0.1968
     32 C28         3.7065    1.6123    0.6184 C.ar      1 <0>        -0.0360
     33 C29         2.4599    1.0297    0.4031 C.ar      1 <0>        -0.2617
     34 C30         1.2044    1.7514    0.6839 C.ar      1 <0>         0.5303
     35 O1          1.2234    2.8908    1.1184 O.3       1 <0>        -0.5766
     36 N5          0.0424    1.1256    0.4507 N.ar      1 <0>        -0.6724
     37 H1         -7.7796   -6.8704   -0.3091 H         1 <0>         0.1278
     38 H2         -9.0849   -4.7860   -0.4027 H         1 <0>         0.1311
     39 H3         -7.9386   -2.6093   -0.3311 H         1 <0>         0.1385
     40 H4         -4.1691   -4.6127   -0.0842 H         1 <0>         0.1310
     41 H5         -5.3254   -6.7845   -0.1451 H         1 <0>         0.1331
     42 H6         -3.2446   -2.8274   -0.0290 H         1 <0>         0.1855
     43 H7         -3.4886    1.8608   -1.3012 H         1 <0>         0.0786
     44 H8         -4.9602    1.6019   -2.2982 H         1 <0>         0.0631
     45 H9         -4.3099    4.0049   -2.2637 H         1 <0>         0.0735
     46 H10        -6.5035    4.9122   -1.5127 H         1 <0>         0.0609
     47 H11        -6.7141    3.3770   -2.4211 H         1 <0>         0.0594
     48 H12        -8.1133    3.4014   -0.3621 H         1 <0>         0.0677
     49 H13        -7.1727    1.2508   -1.1918 H         1 <0>         0.0648
     50 H14        -7.2918    1.2574    0.6005 H         1 <0>         0.0654
     51 H15        -6.6690    4.9214    0.9802 H         1 <0>         0.0608
     52 H16        -6.9988    3.3929    1.8641 H         1 <0>         0.0598
     53 H17        -4.5948    4.0205    2.0216 H         1 <0>         0.0752
     54 H18        -3.1956    3.9963   -0.0376 H         1 <0>         0.0749
     55 H19        -4.4566    5.2725   -0.1260 H         1 <0>         0.0612
     56 H20        -5.2449    1.6176    1.9872 H         1 <0>         0.0645
     57 H21        -3.6542    1.8701    1.1918 H         1 <0>         0.0815
     58 H22        -2.4068    1.0412    0.3090 H         1 <0>         0.1732
     59 H23         3.4779   -1.9975   -0.7562 H         1 <0>         0.1157
     60 H24         5.6667   -0.9520   -0.3682 H         1 <0>         0.1107
     61 H25         5.8178    1.3414    0.5039 H         1 <0>         0.1089
     62 H26         3.7774    2.6194    1.0019 H         1 <0>         0.1167
@<TRIPOS>BOND
     1    1    6 ar
     2    1    2 ar
     3    1   37 1
     4    2    3 ar
     5    2   38 1
     6    3    4 ar
     7    3   39 1
     8    4    5 ar
     9    4    7 1
    10    5    6 ar
    11    5   40 1
    12    6   41 1
    13    7   11 1
    14    7    8 1
    15    8    9 2
    16    8   42 1
    17    9   10 1
    18    9   22 1
    19   10   11 2
    20   10   12 1
    21   12   17 1
    22   12   21 1
    23   12   13 1
    24   13   14 1
    25   13   43 1
    26   13   44 1
    27   14   20 1
    28   14   15 1
    29   14   45 1
    30   15   16 1
    31   15   46 1
    32   15   47 1
    33   16   17 1
    34   16   18 1
    35   16   48 1
    36   17   49 1
    37   17   50 1
    38   18   19 1
    39   18   51 1
    40   18   52 1
    41   19   20 1
    42   19   21 1
    43   19   53 1
    44   20   54 1
    45   20   55 1
    46   21   56 1
    47   21   57 1
    48   22   23 2
    49   22   58 1
    50   23   24 1
    51   23   26 1
    52   24   25 3
    53   26   36 ar
    54   26   27 ar
    55   27   28 ar
    56   28   33 ar
    57   28   29 ar
    58   29   30 ar
    59   29   59 1
    60   30   31 ar
    61   30   60 1
    62   31   32 ar
    63   31   61 1
    64   32   33 ar
    65   32   62 1
    66   33   34 ar
    67   34   35 1
    68   34   36 ar
@<TRIPOS>MOLECULE
ZINC08892356
   43    46     0     0     0
SMALL
USER_CHARGES

@<TRIPOS>ATOM
      1 C1          0.0512    1.3818    0.0680 C.ar      1 <0>        -0.1113
      2 C2          1.2487    2.0718    0.0853 C.ar      1 <0>        -0.0897
      3 C3          2.4460    1.3793    0.0683 C.ar      1 <0>        -0.0927
      4 C4          2.4442   -0.0036    0.0341 C.ar      1 <0>        -0.0873
      5 C5          1.2463   -0.6927    0.0168 C.ar      1 <0>        -0.0819
      6 C6          0.0499   -0.0002    0.0338 C.ar      1 <0>        -0.0594
      7 C7         -1.2560   -0.7521    0.0149 C.3       1 <0>         0.2570
      8 H1         -2.0722   -0.0783   -0.2455 H         1 <0>         0.0832
      9 C8         -1.5125   -1.3816    1.3643 C.2       1 <0>        -0.5002
     10 C9         -1.6608   -0.6800    2.6424 C.2       1 <0>         0.5050
     11 C10        -2.8148    0.2166    2.8637 C.ar      1 <0>        -0.1329
     12 C11        -3.8300    0.3019    1.9080 C.ar      1 <0>        -0.0540
     13 C12        -4.9041    1.1396    2.1204 C.ar      1 <0>        -0.1263
     14 C13        -4.9779    1.8959    3.2789 C.ar      1 <0>        -0.0196
     15 C14        -3.9740    1.8160    4.2304 C.ar      1 <0>        -0.1255
     16 C15        -2.8976    0.9777    4.0321 C.ar      1 <0>        -0.0617
     17 Cl1        -6.3337    2.9485    3.5392 Cl        1 <0>        -0.0783
     18 O1         -0.8338   -0.8355    3.5213 O.2       1 <0>        -0.4630
     19 C16        -1.5794   -2.7193    1.1646 C.2       1 <0>         0.2698
     20 O2         -1.7973   -3.6455    2.1263 O.3       1 <0>        -0.6383
     21 C17        -1.3768   -3.0065   -0.2703 C.2       1 <0>         0.5111
     22 O3         -1.3811   -4.1157   -0.7668 O.2       1 <0>        -0.5047
     23 N1         -1.1873   -1.8589   -0.9464 N.am      1 <0>        -0.5511
     24 C18        -0.9649   -1.7413   -2.3220 C.ar      1 <0>         0.1842
     25 C19        -0.7791   -0.4883   -2.8921 C.ar      1 <0>        -0.1335
     26 C20        -0.5597   -0.3746   -4.2507 C.ar      1 <0>        -0.1214
     27 C21        -0.5253   -1.5086   -5.0449 C.ar      1 <0>         0.0559
     28 C22        -0.7102   -2.7589   -4.4788 C.ar      1 <0>        -0.1207
     29 C23        -0.9238   -2.8779   -3.1196 C.ar      1 <0>        -0.1350
     30 F1         -0.3114   -1.3950   -6.3740 F         1 <0>        -0.1469
     31 Br1         4.0847    2.3227    0.0913 Br        1 <0>        -0.0639
     32 H2         -0.8837    1.9223    0.0857 H         1 <0>         0.1312
     33 H3          1.2496    3.1515    0.1117 H         1 <0>         0.1301
     34 H4          3.3788   -0.5446    0.0204 H         1 <0>         0.1292
     35 H5          1.2448   -1.7724   -0.0100 H         1 <0>         0.1250
     36 H6         -3.7734   -0.2869    1.0044 H         1 <0>         0.1428
     37 H7         -5.6895    1.2068    1.3821 H         1 <0>         0.1345
     38 H8         -4.0368    2.4086    5.1311 H         1 <0>         0.1335
     39 H9         -2.1180    0.9126    4.7767 H         1 <0>         0.1395
     40 H10        -0.8066    0.3964   -2.2732 H         1 <0>         0.1352
     41 H11        -0.4153    0.5994   -4.6943 H         1 <0>         0.1349
     42 H12        -0.6829   -3.6419   -5.1000 H         1 <0>         0.1356
     43 H13        -1.0632   -3.8534   -2.6778 H         1 <0>         0.1615
@<TRIPOS>BOND
     1    1    6 ar
     2    1    2 ar
     3    1   32 1
     4    2    3 ar
     5    2   33 1
     6    3    4 ar
     7    3   31 1
     8    4    5 ar
     9    4   34 1
    10    5    6 ar
    11    5   35 1
    12    6    7 1
    13    7    9 1
    14    7   23 1
    15    7    8 1
    16    9   19 2
    17    9   10 1
    18   10   18 2
    19   10   11 1
    20   11   16 ar
    21   11   12 ar
    22   12   13 ar
    23   12   36 1
    24   13   14 ar
    25   13   37 1
    26   14   15 ar
    27   14   17 1
    28   15   16 ar
    29   15   38 1
    30   16   39 1
    31   19   21 1
    32   19   20 1
    33   21   23 am
    34   21   22 2
    35   23   24 1
    36   24   29 ar
    37   24   25 ar
    38   25   26 ar
    39   25   40 1
    40   26   27 ar
    41   26   41 1
    42   27   28 ar
    43   27   30 1
    44   28   29 ar
    45   28   42 1
    46   29   43 1
@<TRIPOS>MOLECULE
ZINC40475339
   55    59     0     0     0
SMALL
USER_CHARGES

@<TRIPOS>ATOM
      1 C1         -0.0184    1.5028    0.0103 C.3       1 <0>        -0.1129
      2 C2          0.0021   -0.0041    0.0020 C.ar      1 <0>        -0.0981
      3 C3          0.0058   -0.6875   -1.2001 C.ar      1 <0>        -0.0999
      4 C4          0.0245   -2.0685   -1.2108 C.ar      1 <0>        -0.1372
      5 C5          0.0401   -2.7705   -0.0132 C.ar      1 <0>         0.1183
      6 C6          0.0368   -2.0816    1.1921 C.ar      1 <0>        -0.1355
      7 C7          0.0229   -0.7004    1.1965 C.ar      1 <0>        -0.1003
      8 N1          0.0586   -4.1723   -0.0209 N.am      1 <0>        -0.5292
      9 C8          0.0691   -4.9225    1.1119 C.2       1 <0>         0.5521
     10 O1         -0.1383   -4.5375    2.2425 O.2       1 <0>        -0.4344
     11 C9          0.3884   -6.3198    0.6819 C.3       1 <0>        -0.1169
     12 H1          1.4693   -6.4422    0.6130 H         1 <0>         0.1398
     13 C10        -0.2030   -7.4763    1.4504 C.3       1 <0>         0.0830
     14 H2         -1.2886   -7.3816    1.4781 H         1 <0>         0.0934
     15 C11         0.1752   -8.7501    0.7547 C.2       1 <0>        -0.2920
     16 C12         0.5920   -8.9486   -0.5314 C.2       1 <0>         0.1110
     17 N2          0.8804  -10.2117   -0.8386 N.2       1 <0>        -0.5570
     18 C13         0.7490  -11.1865    0.0356 C.2       1 <0>         0.2783
     19 S1          1.0741  -12.9042   -0.1845 S.3       1 <0>        -0.7231
     20 S2          0.1947  -10.3957    1.4157 S.3       1 <0>         0.0724
     21 S3          0.7079   -7.5823   -1.6769 S.3       1 <0>         0.0028
     22 C14        -0.2283   -6.3257   -0.7490 C.3       1 <0>        -0.1407
     23 H3         -1.2973   -6.5378   -0.7288 H         1 <0>         0.1555
     24 C15         0.0619   -4.9096   -1.1611 C.2       1 <0>         0.5666
     25 O2          0.2610   -4.5070   -2.2871 O.2       1 <0>        -0.4374
     26 C16         0.3418   -7.4835    2.8554 C.ar      1 <0>        -0.0731
     27 C17         1.7026   -7.6001    3.0685 C.ar      1 <0>        -0.0951
     28 C18         2.2023   -7.6067    4.3573 C.ar      1 <0>        -0.1127
     29 C19         1.3413   -7.4964    5.4331 C.ar      1 <0>        -0.0694
     30 C20        -0.0195   -7.3789    5.2200 C.ar      1 <0>        -0.1195
     31 C21        -0.5188   -7.3680    3.9310 C.ar      1 <0>        -0.0934
     32 C22         1.8860   -7.5046    6.8382 C.3       1 <0>        -0.0288
     33 C23         2.8531   -6.3326    7.0171 C.3       1 <0>        -0.1371
     34 C24         0.7317   -7.3699    7.8334 C.3       1 <0>        -0.1430
     35 C25         2.6261   -8.8197    7.0905 C.3       1 <0>        -0.1392
     36 H4          1.0042    1.8801    0.0026 H         1 <0>         0.0702
     37 H5         -0.5455    1.8639   -0.8728 H         1 <0>         0.0662
     38 H6         -0.5286    1.8543    0.9071 H         1 <0>         0.0662
     39 H7         -0.0064   -0.1408   -2.1314 H         1 <0>         0.1290
     40 H8          0.0266   -2.6018   -2.1500 H         1 <0>         0.1529
     41 H9          0.0485   -2.6250    2.1253 H         1 <0>         0.1537
     42 H10         0.0241   -0.1639    2.1338 H         1 <0>         0.1287
     43 H11         2.3753   -7.6862    2.2280 H         1 <0>         0.1166
     44 H12         3.2655   -7.6984    4.5238 H         1 <0>         0.1178
     45 H13        -0.6923   -7.2931    6.0605 H         1 <0>         0.1234
     46 H14        -1.5816   -7.2725    3.7644 H         1 <0>         0.1181
     47 H15         2.3258   -5.3957    6.8373 H         1 <0>         0.0555
     48 H16         3.2471   -6.3386    8.0334 H         1 <0>         0.0552
     49 H17         3.6754   -6.4286    6.3081 H         1 <0>         0.0563
     50 H18         0.0427   -8.2049    7.7059 H         1 <0>         0.0592
     51 H19         1.1257   -7.3759    8.8497 H         1 <0>         0.0550
     52 H20         0.2044   -6.4330    7.6536 H         1 <0>         0.0578
     53 H21         3.4484   -8.9156    6.3815 H         1 <0>         0.0574
     54 H22         3.0201   -8.8256    8.1068 H         1 <0>         0.0552
     55 H23         1.9371   -9.6546    6.9630 H         1 <0>         0.0582
@<TRIPOS>BOND
     1    1    2 1
     2    1   36 1
     3    1   37 1
     4    1   38 1
     5    2    7 ar
     6    2    3 ar
     7    3    4 ar
     8    3   39 1
     9    4    5 ar
    10    4   40 1
    11    5    6 ar
    12    5    8 1
    13    6    7 ar
    14    6   41 1
    15    7   42 1
    16    8   24 am
    17    8    9 am
    18    9   10 2
    19    9   11 1
    20   11   12 1
    21   11   22 1
    22   11   13 1
    23   13   14 1
    24   13   15 1
    25   13   26 1
    26   15   20 1
    27   15   16 2
    28   16   17 1
    29   16   21 1
    30   17   18 2
    31   18   19 1
    32   18   20 1
    33   21   22 1
    34   22   23 1
    35   22   24 1
    36   24   25 2
    37   26   31 ar
    38   26   27 ar
    39   27   28 ar
    40   27   43 1
    41   28   29 ar
    42   28   44 1
    43   29   30 ar
    44   29   32 1
    45   30   31 ar
    46   30   45 1
    47   31   46 1
    48   32   33 1
    49   32   34 1
    50   32   35 1
    51   33   47 1
    52   33   48 1
    53   33   49 1
    54   34   50 1
    55   34   51 1
    56   34   52 1
    57   35   53 1
    58   35   54 1
    59   35   55 1
@<TRIPOS>MOLECULE
ZINC59378911
   37    38     0     0     0
SMALL
USER_CHARGES

@<TRIPOS>ATOM
      1 C1          0.0050    1.3682    0.2991 C.ar      1 <0>        -0.1182
      2 C2          1.1545    2.0886    0.0236 C.ar      1 <0>        -0.1108
      3 C3          2.3369    1.4339   -0.2671 C.ar      1 <0>        -0.1737
      4 C4          2.3780    0.0498   -0.2850 C.ar      1 <0>         0.0947
      5 C5          1.2169   -0.6836   -0.0068 C.ar      1 <0>         0.1073
      6 C6          0.0290   -0.0110    0.2859 C.ar      1 <0>        -0.1364
      7 N1          1.2470   -2.0513   -0.0223 N.2       1 <0>        -0.4425
      8 C7          0.3282   -2.7162   -0.6651 C.2       1 <0>         0.2301
      9 C8          0.2906   -4.1840   -0.5841 C.ar      1 <0>        -0.2070
     10 C9         -0.6897   -4.9019   -1.2766 C.ar      1 <0>         0.0280
     11 C10        -0.7185   -6.2780   -1.1963 C.ar      1 <0>        -0.2232
     12 C11         0.2201   -6.9534   -0.4320 C.ar      1 <0>         0.0465
     13 C12         1.1933   -6.2561    0.2573 C.ar      1 <0>        -0.1919
     14 C13         1.2414   -4.8731    0.1838 C.ar      1 <0>         0.3314
     15 O1          2.2008   -4.1877    0.8564 O.3       1 <0>        -0.5633
     16 N2          2.1901   -6.9879    1.0708 N.pl3     1 <0>         0.0690
     17 O2          2.1522   -8.1948    1.1316 O.2       1 <0>        -0.2529
     18 O3          3.0423   -6.3787    1.6745 O.3       1 <0>        -0.1504
     19 Br1        -2.0445   -7.2481   -2.1325 Br        1 <0>        -0.0728
     20 O4          3.5393   -0.5944   -0.5715 O.3       1 <0>        -0.2712
     21 C14         4.6820    0.2189   -0.8453 C.3       1 <0>         0.4159
     22 C15         5.8859   -0.6768   -1.1436 C.3       1 <0>         0.0475
     23 H1          6.0897   -1.3110   -0.2808 H         1 <0>         0.1756
     24 C16         7.1093    0.1940   -1.4367 C.3       1 <0>         0.4413
     25 F1          7.3885    0.9954   -0.3245 F         1 <0>        -0.1562
     26 F2          8.2102   -0.6250   -1.7095 F         1 <0>        -0.1556
     27 F3          6.8478    1.0080   -2.5441 F         1 <0>        -0.1596
     28 F4          5.6067   -1.4782   -2.2558 F         1 <0>        -0.1369
     29 F5          4.4205    1.0329   -1.9527 F         1 <0>        -0.1724
     30 F6          4.9612    1.0203    0.2670 F         1 <0>        -0.1685
     31 H2         -0.9132    1.8880    0.5296 H         1 <0>         0.1266
     32 H3          1.1274    3.1682    0.0356 H         1 <0>         0.1271
     33 H4          3.2297    2.0026   -0.4810 H         1 <0>         0.1314
     34 H5         -0.8698   -0.5696    0.5017 H         1 <0>         0.1326
     35 H6         -0.4053   -2.1891   -1.2571 H         1 <0>         0.0967
     36 H7         -1.4230   -4.3793   -1.8730 H         1 <0>         0.1272
     37 H8          0.1901   -8.0315   -0.3747 H         1 <0>         0.1346
@<TRIPOS>BOND
     1    1    6 ar
     2    1    2 ar
     3    1   31 1
     4    2    3 ar
     5    2   32 1
     6    3    4 ar
     7    3   33 1
     8    4    5 ar
     9    4   20 1
    10    5    6 ar
    11    5    7 1
    12    6   34 1
    13    7    8 2
    14    8    9 1
    15    8   35 1
    16    9   14 ar
    17    9   10 ar
    18   10   11 ar
    19   10   36 1
    20   11   12 ar
    21   11   19 1
    22   12   13 ar
    23   12   37 1
    24   13   14 ar
    25   13   16 1
    26   14   15 1
    27   16   17 2
    28   16   18 1
    29   20   21 1
    30   21   22 1
    31   21   29 1
    32   21   30 1
    33   22   23 1
    34   22   24 1
    35   22   28 1
    36   24   25 1
    37   24   26 1
    38   24   27 1
@<TRIPOS>MOLECULE
ZINC04014094
   46    45     0     0     0
SMALL
USER_CHARGES
4-(2-ethoxycarbonyl-2-tert-butoxycarbonylamino-ethyl)sulfanyl-2-methyl-4-oxo-but-2-enoic acid
@<TRIPOS>ATOM
      1 C1         -7.5324    5.1523    2.4901 C.3       1 <0>        -0.1537
      2 C2         -6.9996    5.6501    1.1451 C.3       1 <0>         0.0626
      3 O1         -5.5710    5.4022    1.0687 O.3       1 <0>        -0.3518
      4 C3         -4.9457    5.7830   -0.0563 C.2       1 <0>         0.4578
      5 O2         -5.5714    6.3062   -0.9478 O.2       1 <0>        -0.4901
      6 C4         -3.4633    5.5580   -0.2076 C.3       1 <0>         0.1959
      7 H1         -2.9326    6.0904    0.5818 H         1 <0>         0.1432
      8 C5         -3.1615    4.0616   -0.1055 C.3       1 <0>        -0.1103
      9 S1         -1.3703    3.8036   -0.1391 S.3       1 <0>        -0.1607
     10 C6         -1.3116    2.0473   -0.0106 C.2       1 <0>         0.3911
     11 O3         -2.3434    1.4086    0.0672 O.2       1 <0>        -0.4518
     12 C7         -0.0099    1.3513    0.0027 C.2       1 <0>        -0.2310
     13 C8          0.0340    0.0091   -0.0038 C.2       1 <0>        -0.0185
     14 C9         -1.2402   -0.7870    0.1139 C.3       1 <0>        -0.1176
     15 C10         1.3289   -0.6857   -0.1260 C.2       1 <0>         0.4771
     16 O4          2.3558   -0.0441   -0.2208 O.co2     1 <0>        -0.6160
     17 N1         -3.0243    6.0567   -1.5133 N.am      1 <0>        -0.6898
     18 C11        -2.7116    7.3587   -1.6670 C.2       1 <0>         0.6654
     19 O5         -2.7937    8.1188   -0.7226 O.2       1 <0>        -0.5642
     20 O6         -2.3082    7.8170   -2.8670 O.3       1 <0>        -0.3569
     21 C12        -1.9878    9.2302   -2.9592 C.3       1 <0>         0.1362
     22 C13        -0.8508    9.5596   -1.9899 C.3       1 <0>        -0.1847
     23 C14        -1.5525    9.5623   -4.3878 C.3       1 <0>        -0.1412
     24 C15        -3.2227   10.0577   -2.5969 C.3       1 <0>        -0.1830
     25 H2         -7.3438    4.0827    2.5823 H         1 <0>         0.0693
     26 H3         -7.0281    5.6812    3.2989 H         1 <0>         0.0683
     27 H4         -8.6049    5.3384    2.5475 H         1 <0>         0.0802
     28 H5         -7.1882    6.7197    1.0529 H         1 <0>         0.0706
     29 H6         -7.5039    5.1212    0.3363 H         1 <0>         0.0711
     30 H7         -3.6195    3.5404   -0.9461 H         1 <0>         0.1068
     31 H8         -3.5672    3.6720    0.8282 H         1 <0>         0.1274
     32 H9          0.9073    1.9215    0.0131 H         1 <0>         0.1439
     33 H10        -1.8647   -0.6045   -0.7607 H         1 <0>         0.0724
     34 H11        -1.0009   -1.8487    0.1743 H         1 <0>         0.0773
     35 H12        -1.7764   -0.4836    1.0130 H         1 <0>         0.0724
     36 H13        -2.9588    5.4499   -2.2672 H         1 <0>         0.4169
     37 H14         0.0289    8.9700   -2.2480 H         1 <0>         0.0630
     38 H15        -0.6103   10.6205   -2.0591 H         1 <0>         0.0703
     39 H16        -1.1610    9.3230   -0.9721 H         1 <0>         0.0877
     40 H17        -2.3625    9.3276   -5.0784 H         1 <0>         0.0665
     41 H18        -1.3119   10.6232   -4.4570 H         1 <0>         0.0806
     42 H19        -0.6727    8.9727   -4.6459 H         1 <0>         0.0689
     43 H20        -3.5329    9.8211   -1.5791 H         1 <0>         0.0865
     44 H21        -2.9822   11.1186   -2.6661 H         1 <0>         0.0701
     45 H22        -4.0327    9.8230   -3.2875 H         1 <0>         0.0596
     46 O7          1.3729   -2.0326   -0.1325 O.co2     1 <0>        -0.7380
@<TRIPOS>BOND
     1    1    2 1
     2    1   25 1
     3    1   26 1
     4    1   27 1
     5    2    3 1
     6    2   28 1
     7    2   29 1
     8    3    4 1
     9    4    5 2
    10    4    6 1
    11    6    7 1
    12    6    8 1
    13    6   17 1
    14    8    9 1
    15    8   30 1
    16    8   31 1
    17    9   10 1
    18   10   11 2
    19   10   12 1
    20   12   13 2
    21   12   32 1
    22   13   14 1
    23   13   15 1
    24   14   33 1
    25   14   34 1
    26   14   35 1
    27   15   16 2
    28   15   46 1
    29   17   18 am
    30   17   36 1
    31   18   19 2
    32   18   20 1
    33   20   21 1
    34   21   22 1
    35   21   23 1
    36   21   24 1
    37   22   37 1
    38   22   38 1
    39   22   39 1
    40   23   40 1
    41   23   41 1
    42   23   42 1
    43   24   43 1
    44   24   44 1
    45   24   45 1
@<TRIPOS>MOLECULE
ZINC14449721
   52    51     0     0     0
SMALL
USER_CHARGES
(5Z,8Z,10E,12R,14Z,17Z)-12-hydroxyicosa-5,8,10,14,17-pentaenoic acid
@<TRIPOS>ATOM
      1 C1         -1.6552    1.6956   -1.4039 C.3       1 <0>        -0.1472
      2 C2         -1.2094    1.0517   -0.0896 C.3       1 <0>        -0.1093
      3 C3         -2.0087    1.6300    1.0496 C.2       1 <0>        -0.1583
      4 C4         -2.6296    0.8340    1.8845 C.2       1 <0>        -0.1535
      5 C5         -2.4152   -0.6556    1.8061 C.3       1 <0>        -0.0852
      6 C6         -2.0022   -1.1755    3.1590 C.2       1 <0>        -0.1522
      7 C7         -2.6481   -2.1783    3.7004 C.2       1 <0>        -0.1529
      8 C8         -3.6950   -2.9167    2.9068 C.3       1 <0>        -0.1289
      9 C9         -3.3821   -4.4143    2.9189 C.3       1 <0>         0.1438
     10 H1         -2.3671   -4.5763    2.5560 H         1 <0>         0.1020
     11 C10        -4.3564   -5.1383    2.0259 C.2       1 <0>        -0.1987
     12 C11        -3.9125   -5.8344    0.9848 C.2       1 <0>        -0.0995
     13 C12        -4.8637   -6.5412    0.1130 C.2       1 <0>        -0.1549
     14 C13        -4.4154   -7.3220   -0.8642 C.2       1 <0>        -0.1126
     15 C14        -2.9406   -7.6075   -0.9841 C.3       1 <0>        -0.0855
     16 C15        -2.7162   -9.0977   -0.9902 C.2       1 <0>        -0.1730
     17 C16        -2.0299   -9.6528   -1.9581 C.2       1 <0>        -0.1352
     18 C17        -1.3282   -8.7900   -2.9751 C.3       1 <0>        -0.1054
     19 C18         0.1406   -9.2072   -3.0714 C.3       1 <0>        -0.0924
     20 C19         0.8530   -8.3313   -4.1040 C.3       1 <0>        -0.1581
     21 C20         2.2997   -8.7422   -4.1988 C.2       1 <0>         0.4571
     22 O1          2.7182   -9.6432   -3.5111 O.co2     1 <0>        -0.6419
     23 O2         -3.4965   -4.9141    4.2528 O.3       1 <0>        -0.5552
     24 H2         -2.7146    1.4961   -1.5653 H         1 <0>         0.0539
     25 H3         -1.4916    2.7721   -1.3550 H         1 <0>         0.0529
     26 H4         -1.0771    1.2773   -2.2279 H         1 <0>         0.0576
     27 H5         -1.3730   -0.0248   -0.1385 H         1 <0>         0.0771
     28 H6         -0.1500    1.2512    0.0718 H         1 <0>         0.0696
     29 H7         -2.0696    2.7006    1.1778 H         1 <0>         0.1078
     30 H8         -3.2952    1.2454    2.6289 H         1 <0>         0.1073
     31 H9         -3.3415   -1.1403    1.4979 H         1 <0>         0.0825
     32 H10        -1.6324   -0.8722    1.0792 H         1 <0>         0.0857
     33 H11        -1.1737   -0.7212    3.6822 H         1 <0>         0.1097
     34 H12        -2.4303   -2.4760    4.7155 H         1 <0>         0.1139
     35 H13        -4.6754   -2.7468    3.3520 H         1 <0>         0.0726
     36 H14        -3.6949   -2.5538    1.8790 H         1 <0>         0.0872
     37 H15        -5.4155   -5.0914    2.2321 H         1 <0>         0.1116
     38 H16        -2.8534   -5.8813    0.7785 H         1 <0>         0.1205
     39 H17        -5.9263   -6.4254    0.2673 H         1 <0>         0.1127
     40 H18        -5.1080   -7.7520   -1.5726 H         1 <0>         0.1140
     41 H19        -2.5619   -7.1792   -1.9121 H         1 <0>         0.0910
     42 H20        -2.4148   -7.1643   -0.1383 H         1 <0>         0.0789
     43 H21        -3.1213   -9.7080   -0.1966 H         1 <0>         0.1058
     44 H22        -1.9668  -10.7287   -2.0272 H         1 <0>         0.1089
     45 H23        -1.8054   -8.9134   -3.9473 H         1 <0>         0.0666
     46 H24        -1.3900   -7.7454   -2.6700 H         1 <0>         0.0711
     47 H25         0.6178   -9.0838   -2.0992 H         1 <0>         0.0605
     48 H26         0.2024  -10.2518   -3.3765 H         1 <0>         0.0603
     49 H27         0.3758   -8.4546   -5.0762 H         1 <0>         0.0622
     50 H28         0.7912   -7.2867   -3.7988 H         1 <0>         0.0617
     51 H29        -4.3755   -4.8031    4.6403 H         1 <0>         0.3724
     52 O3          3.1235   -8.1072   -5.0473 O.co2     1 <0>        -0.7791
@<TRIPOS>BOND
     1    1    2 1
     2    1   24 1
     3    1   25 1
     4    1   26 1
     5    2    3 1
     6    2   27 1
     7    2   28 1
     8    3    4 2
     9    3   29 1
    10    4    5 1
    11    4   30 1
    12    5    6 1
    13    5   31 1
    14    5   32 1
    15    6    7 2
    16    6   33 1
    17    7    8 1
    18    7   34 1
    19    8    9 1
    20    8   35 1
    21    8   36 1
    22    9   10 1
    23    9   11 1
    24    9   23 1
    25   11   12 2
    26   11   37 1
    27   12   13 1
    28   12   38 1
    29   13   14 2
    30   13   39 1
    31   14   15 1
    32   14   40 1
    33   15   16 1
    34   15   41 1
    35   15   42 1
    36   16   17 2
    37   16   43 1
    38   17   18 1
    39   17   44 1
    40   18   19 1
    41   18   45 1
    42   18   46 1
    43   19   20 1
    44   19   47 1
    45   19   48 1
    46   20   21 1
    47   20   49 1
    48   20   50 1
    49   21   22 2
    50   21   52 1
    51   23   51 1
@<TRIPOS>MOLECULE
ZINC31163087
   66    65     0     0     0
SMALL
USER_CHARGES
(2Z,4R)-2-[(E,4R,6R,8S,10S)-6-(hydroxymethyl)-2,4,8,10-tetramethyl-dodec-2-enylidene]-4-methyl-pentanedioic acid
@<TRIPOS>ATOM
      1 C1          0.8754   -5.0065   -4.3323 C.3       1 <0>        -0.1572
      2 C2          0.8273   -3.6062   -4.9470 C.3       1 <0>        -0.1175
      3 C3         -0.4547   -2.8984   -4.5038 C.3       1 <0>        -0.1002
      4 H1         -0.5121   -2.8974   -3.4053 H         1 <0>         0.0813
      5 C4         -1.6676   -3.6339   -5.0770 C.3       1 <0>        -0.1474
      6 C5         -0.4440   -1.4565   -5.0153 C.3       1 <0>        -0.1077
      7 C6         -1.6538   -0.7071   -4.4534 C.3       1 <0>        -0.0957
      8 H2         -2.5718   -1.2673   -4.6846 H         1 <0>         0.0701
      9 C7         -1.7317    0.6835   -5.0868 C.3       1 <0>        -0.1485
     10 C8         -1.5088   -0.5691   -2.9365 C.3       1 <0>        -0.1135
     11 C9         -2.7741    0.0685   -2.3591 C.3       1 <0>        -0.0840
     12 H3         -2.9694    1.0231   -2.8696 H         1 <0>         0.0765
     13 C10        -2.5807    0.3208   -0.8625 C.3       1 <0>        -0.1004
     14 C11        -1.4918    1.3763   -0.6598 C.3       1 <0>        -0.0445
     15 H4         -0.5702    1.0665   -1.1743 H         1 <0>         0.0752
     16 C12        -1.9723    2.7181   -1.2162 C.3       1 <0>        -0.1388
     17 C13        -1.1979    1.5187    0.8113 C.2       1 <0>        -0.2101
     18 C14         0.0512    1.3774    1.2589 C.2       1 <0>         0.0002
     19 C15         1.1853    1.1958    0.2832 C.3       1 <0>        -0.0940
     20 C16         0.3198    1.3987    2.6969 C.2       1 <0>        -0.1542
     21 C17         0.7383    0.2752    3.3236 C.2       1 <0>        -0.1085
     22 C18         1.1386    0.3268    4.7755 C.3       1 <0>        -0.0497
     23 C19        -0.0544   -0.0691    5.6478 C.3       1 <0>        -0.1162
     24 H5         -0.9143    0.5784    5.4215 H         1 <0>         0.0537
     25 C20        -0.4190   -1.5308    5.3802 C.3       1 <0>        -0.1060
     26 C21         0.3075    0.1004    7.1009 C.2       1 <0>         0.4703
     27 O1          1.4069    0.4972    7.4073 O.co2     1 <0>        -0.6480
     28 O2         -0.5914   -0.1894    8.0547 O.co2     1 <0>        -0.7869
     29 C22         0.8004   -0.9510    2.6143 C.2       1 <0>         0.4815
     30 O3          0.3687   -1.0195    1.4791 O.co2     1 <0>        -0.6286
     31 O4          1.3382   -2.0419    3.1986 O.co2     1 <0>        -0.7572
     32 C23        -3.9611   -0.8740   -2.5682 C.3       1 <0>         0.0884
     33 O5         -5.1622   -0.2298   -2.1388 O.3       1 <0>        -0.5972
     34 H6          1.7971   -5.5153   -4.6510 H         1 <0>         0.0490
     35 H7          0.0022   -5.5848   -4.6687 H         1 <0>         0.0530
     36 H8          0.8614   -4.9261   -3.2353 H         1 <0>         0.0601
     37 H9          1.7005   -3.0279   -4.6106 H         1 <0>         0.0620
     38 H10         0.8413   -3.6866   -6.0440 H         1 <0>         0.0542
     39 H11        -2.5893   -3.1250   -4.7583 H         1 <0>         0.0544
     40 H12        -1.6752   -4.6706   -4.7093 H         1 <0>         0.0539
     41 H13        -1.6103   -3.6349   -6.1755 H         1 <0>         0.0476
     42 H14         0.4804   -0.9582   -4.6880 H         1 <0>         0.0630
     43 H15        -0.4909   -1.4569   -6.1143 H         1 <0>         0.0550
     44 H16        -2.6015    1.2222   -4.6828 H         1 <0>         0.0569
     45 H17        -1.8359    0.5843   -6.1774 H         1 <0>         0.0458
     46 H18        -0.8137    1.2436   -4.8556 H         1 <0>         0.0547
     47 H19        -1.3630   -1.5638   -2.4901 H         1 <0>         0.0698
     48 H20        -0.6407    0.0664   -2.7074 H         1 <0>         0.0750
     49 H21        -3.5247    0.6793   -0.4261 H         1 <0>         0.0608
     50 H22        -2.2806   -0.6152   -0.3686 H         1 <0>         0.0684
     51 H23        -1.1894    3.4770   -1.0705 H         1 <0>         0.0463
     52 H24        -2.8861    3.0279   -0.6881 H         1 <0>         0.0478
     53 H25        -2.1868    2.6141   -2.2901 H         1 <0>         0.0448
     54 H26        -2.0131    1.7391    1.5162 H         1 <0>         0.0927
     55 H27         2.1316    1.0970    0.8352 H         1 <0>         0.0468
     56 H28         1.2390    2.0693   -0.3832 H         1 <0>         0.0398
     57 H29         1.0130    0.2886   -0.3145 H         1 <0>         0.0757
     58 H30         0.1815    2.3283    3.2685 H         1 <0>         0.1058
     59 H31         1.9696   -0.3720    4.9518 H         1 <0>         0.0758
     60 H32         1.4575    1.3479    5.0319 H         1 <0>         0.0482
     61 H33        -1.2767   -1.8155    6.0073 H         1 <0>         0.0329
     62 H34         0.4408   -2.1732    5.6213 H         1 <0>         0.0499
     63 H35        -0.6832   -1.6545    4.3196 H         1 <0>         0.0526
     64 H36        -4.0431   -1.1292   -3.6350 H         1 <0>         0.0357
     65 H37        -3.8079   -1.7923   -1.9823 H         1 <0>         0.0403
     66 H38        -6.1253   -0.7561   -2.2128 H         1 <0>         0.3961
@<TRIPOS>BOND
     1    1    2 1
     2    1   34 1
     3    1   35 1
     4    1   36 1
     5    2    3 1
     6    2   37 1
     7    2   38 1
     8    3    4 1
     9    3    5 1
    10    3    6 1
    11    5   39 1
    12    5   40 1
    13    5   41 1
    14    6    7 1
    15    6   42 1
    16    6   43 1
    17    7    8 1
    18    7    9 1
    19    7   10 1
    20    9   44 1
    21    9   45 1
    22    9   46 1
    23   10   11 1
    24   10   47 1
    25   10   48 1
    26   11   12 1
    27   11   13 1
    28   11   32 1
    29   13   14 1
    30   13   49 1
    31   13   50 1
    32   14   15 1
    33   14   16 1
    34   14   17 1
    35   16   51 1
    36   16   52 1
    37   16   53 1
    38   17   18 2
    39   17   54 1
    40   18   19 1
    41   18   20 1
    42   19   55 1
    43   19   56 1
    44   19   57 1
    45   20   21 2
    46   20   58 1
    47   21   22 1
    48   21   29 1
    49   22   23 1
    50   22   59 1
    51   22   60 1
    52   23   24 1
    53   23   25 1
    54   23   26 1
    55   25   61 1
    56   25   62 1
    57   25   63 1
    58   26   27 2
    59   26   28 1
    60   29   30 2
    61   29   31 1
    62   32   33 1
    63   32   64 1
    64   32   65 1
    65   33   66 1
@<TRIPOS>MOLECULE
ZINC35464549
   51    50     0     0     0
SMALL
USER_CHARGES

@<TRIPOS>ATOM
      1 C1         -0.0930    1.3680   -0.0355 C.3       1 <0>        -0.1180
      2 C2          0.1712   -0.1134    0.0459 C.2       1 <0>        -0.1389
      3 C3          0.3911   -0.6767    1.2079 C.2       1 <0>        -0.1634
      4 C4          0.2651    0.1321    2.4732 C.3       1 <0>        -0.0890
      5 C5         -0.7088   -0.5622    3.4274 C.3       1 <0>        -0.0735
      6 C6         -0.8349    0.2466    4.6927 C.2       1 <0>        -0.1341
      7 C7         -1.8114    1.1098    4.8238 C.2       1 <0>        -0.1542
      8 C8         -1.9933    1.8502    6.1237 C.3       1 <0>        -0.0952
      9 C9         -2.0250    3.3557    5.8531 C.3       1 <0>        -0.0681
     10 C10        -2.2069    4.0961    7.1530 C.2       1 <0>        -0.1294
     11 C11        -1.1623    4.5509    7.7995 C.2       1 <0>        -0.1395
     12 C12        -1.3442    5.2912    9.0994 C.3       1 <0>         0.0886
     13 O1         -0.3953    4.8147   10.0558 O.3       1 <0>        -0.3560
     14 C13        -0.4830    5.4550   11.3303 C.3       1 <0>         0.0170
     15 H1         -0.8405    6.4764   11.1999 H         1 <0>         0.0607
     16 C14         0.8994    5.4783   11.9855 C.3       1 <0>         0.1021
     17 O2          1.3178    4.1403   12.2627 O.3       1 <0>        -0.5497
     18 C15        -1.4428    4.6952   12.2093 C.2       1 <0>         0.4891
     19 O3         -1.9300    3.6485   11.8175 O.co2     1 <0>        -0.6739
     20 O4         -1.7320    5.1272   13.3121 O.co2     1 <0>        -0.7062
     21 C16        -3.5906    4.3132    7.7092 C.3       1 <0>        -0.1205
     22 C17         0.1625    0.0622    5.8073 C.3       1 <0>        -0.1229
     23 C18         0.1823   -0.9468   -1.2097 C.3       1 <0>        -0.1164
     24 H2          0.7227    1.9094    0.4438 H         1 <0>         0.0652
     25 H3         -0.1631    1.6678   -1.0811 H         1 <0>         0.0578
     26 H4         -1.0296    1.5985    0.4721 H         1 <0>         0.0666
     27 H5          0.6628   -1.7207    1.2592 H         1 <0>         0.1067
     28 H6          1.2420    0.2167    2.9492 H         1 <0>         0.0699
     29 H7         -0.1093    1.1271    2.2327 H         1 <0>         0.0714
     30 H8         -1.6857   -0.6468    2.9514 H         1 <0>         0.0650
     31 H9         -0.3345   -1.5573    3.6680 H         1 <0>         0.0671
     32 H10        -2.4862    1.2910    4.0002 H         1 <0>         0.1048
     33 H11        -2.9311    1.5446    6.5877 H         1 <0>         0.0728
     34 H12        -1.1646    1.6186    6.7927 H         1 <0>         0.0790
     35 H13        -1.0872    3.6613    5.3891 H         1 <0>         0.0646
     36 H14        -2.8538    3.5873    5.1840 H         1 <0>         0.0643
     37 H15        -0.1707    4.3952    7.4009 H         1 <0>         0.1093
     38 H16        -1.1899    6.3576    8.9349 H         1 <0>         0.0390
     39 H17        -2.3537    5.1238    9.4747 H         1 <0>         0.0605
     40 H18         1.6136    5.9498   11.3105 H         1 <0>         0.0346
     41 H19         0.8510    6.0439   12.9160 H         1 <0>         0.0563
     42 H20         2.1881    4.0787   12.6797 H         1 <0>         0.3613
     43 H21        -3.8565    3.4786    8.3579 H         1 <0>         0.0724
     44 H22        -3.6103    5.2399    8.2828 H         1 <0>         0.0650
     45 H23        -4.3057    4.3782    6.8892 H         1 <0>         0.0562
     46 H24         0.9474    0.8136    5.7205 H         1 <0>         0.0660
     47 H25        -0.3413    0.1724    6.7676 H         1 <0>         0.0726
     48 H26         0.6028   -0.9326    5.7401 H         1 <0>         0.0571
     49 H27         1.1922   -0.9740   -1.6188 H         1 <0>         0.0635
     50 H28        -0.1424   -1.9607   -0.9756 H         1 <0>         0.0607
     51 H29        -0.4950   -0.5086   -1.9427 H         1 <0>         0.0617
@<TRIPOS>BOND
     1    1    2 1
     2    1   24 1
     3    1   25 1
     4    1   26 1
     5    2    3 2
     6    2   23 1
     7    3    4 1
     8    3   27 1
     9    4    5 1
    10    4   28 1
    11    4   29 1
    12    5    6 1
    13    5   30 1
    14    5   31 1
    15    6    7 2
    16    6   22 1
    17    7    8 1
    18    7   32 1
    19    8    9 1
    20    8   33 1
    21    8   34 1
    22    9   10 1
    23    9   35 1
    24    9   36 1
    25   10   11 2
    26   10   21 1
    27   11   12 1
    28   11   37 1
    29   12   13 1
    30   12   38 1
    31   12   39 1
    32   13   14 1
    33   14   15 1
    34   14   16 1
    35   14   18 1
    36   16   17 1
    37   16   40 1
    38   16   41 1
    39   17   42 1
    40   18   19 2
    41   18   20 1
    42   21   43 1
    43   21   44 1
    44   21   45 1
    45   22   46 1
    46   22   47 1
    47   22   48 1
    48   23   49 1
    49   23   50 1
    50   23   51 1
@<TRIPOS>MOLECULE
ZINC40092645
   60    62     0     0     0
SMALL
USER_CHARGES

@<TRIPOS>ATOM
      1 C1          2.6393   -0.8348   -3.8001 C.3       1 <0>        -0.1514
      2 C2          2.4991   -2.2525   -3.2421 C.3       1 <0>        -0.1221
      3 C3          2.5805   -2.2098   -1.7149 C.3       1 <0>        -0.1185
      4 C4          2.4403   -3.6275   -1.1569 C.3       1 <0>         0.0585
      5 O1          2.5163   -3.5876    0.2696 O.3       1 <0>        -0.3140
      6 C5          2.4088   -4.7706    0.9255 C.ar      1 <0>         0.1335
      7 C6          2.2391   -5.9491    0.2068 C.ar      1 <0>        -0.2053
      8 C7          2.1301   -7.1512    0.8682 C.ar      1 <0>        -0.0556
      9 C8          2.1903   -7.1865    2.2649 C.ar      1 <0>        -0.1420
     10 C9          2.3610   -5.9995    2.9836 C.ar      1 <0>        -0.0448
     11 C10         2.4744   -4.8019    2.3139 C.ar      1 <0>        -0.1231
     12 C11         2.6642   -3.5224    3.0872 C.3       1 <0>        -0.1000
     13 C12         2.0734   -8.4734    2.9785 C.2       1 <0>         0.4616
     14 O2          2.7629   -8.6912    3.9573 O.2       1 <0>        -0.4898
     15 C13         1.1264   -9.4893    2.5078 C.2       1 <0>        -0.4840
     16 C14         1.0092  -10.7572    2.9660 C.2       1 <0>         0.2853
     17 C15        -0.0661  -11.4452    2.2212 C.2       1 <0>         0.5155
     18 O3         -0.4128  -12.5958    2.4008 O.2       1 <0>        -0.5123
     19 N1         -0.6042  -10.6093    1.3147 N.am      1 <0>        -0.6042
     20 C16         0.0890   -9.3202    1.4225 C.3       1 <0>         0.2972
     21 H1          0.5727   -9.0772    0.4764 H         1 <0>         0.0719
     22 C17        -0.8850   -8.2344    1.8012 C.2       1 <0>        -0.1082
     23 C18        -1.8559   -8.2505    2.7469 C.2       1 <0>        -0.1628
     24 C19        -2.6394   -7.1254    2.9225 C.2       1 <0>        -0.1435
     25 C20        -2.4136   -6.0391    2.1438 C.2       1 <0>        -0.2018
     26 S1         -1.0543   -6.5904    1.1262 S.3       1 <0>         0.0320
     27 C21        -1.6939  -10.9274    0.3886 C.3       1 <0>         0.1388
     28 C22        -1.1115  -11.4855   -0.9115 C.3       1 <0>         0.0440
     29 O4         -0.3169  -12.6373   -0.6217 O.3       1 <0>        -0.3551
     30 C23         0.3635  -13.1749   -1.7576 C.3       1 <0>         0.0626
     31 C24         1.0820  -14.4653   -1.3582 C.3       1 <0>         0.0786
     32 O5          0.1249  -15.4189   -0.8928 O.3       1 <0>        -0.5619
     33 O6          1.7575  -11.3076    3.9497 O.3       1 <0>        -0.6072
     34 H2          3.6009   -0.4192   -3.4990 H         1 <0>         0.0550
     35 H3          2.5814   -0.8652   -4.8882 H         1 <0>         0.0554
     36 H4          1.8355   -0.2100   -3.4108 H         1 <0>         0.0551
     37 H5          1.5375   -2.6681   -3.5433 H         1 <0>         0.0648
     38 H6          3.3030   -2.8773   -3.6314 H         1 <0>         0.0644
     39 H7          3.5421   -1.7942   -1.4137 H         1 <0>         0.0719
     40 H8          1.7767   -1.5850   -1.3255 H         1 <0>         0.0723
     41 H9          1.4787   -4.0431   -1.4580 H         1 <0>         0.0613
     42 H10         3.2441   -4.2523   -1.5462 H         1 <0>         0.0597
     43 H11         2.1924   -5.9209   -0.8718 H         1 <0>         0.1235
     44 H12         1.9980   -8.0659    0.3094 H         1 <0>         0.1269
     45 H13         2.4076   -6.0224    4.0623 H         1 <0>         0.1288
     46 H14         1.6906   -3.0935    3.3245 H         1 <0>         0.0633
     47 H15         3.2035   -3.7327    4.0108 H         1 <0>         0.0625
     48 H16         3.2357   -2.8156    2.4856 H         1 <0>         0.0656
     49 H17        -2.0152   -9.1295    3.3540 H         1 <0>         0.1262
     50 H18        -3.4200   -7.1121    3.6688 H         1 <0>         0.1244
     51 H19        -2.9216   -5.0860    2.1422 H         1 <0>         0.1757
     52 H20        -2.3501  -11.6707    0.8413 H         1 <0>         0.0861
     53 H21        -2.2631  -10.0232    0.1730 H         1 <0>         0.0889
     54 H22        -1.9235  -11.7640   -1.5833 H         1 <0>         0.0541
     55 H23        -0.4908  -10.7262   -1.3871 H         1 <0>         0.0478
     56 H24        -0.3585  -13.3899   -2.5454 H         1 <0>         0.0491
     57 H25         1.0926  -12.4505   -2.1208 H         1 <0>         0.0584
     58 H26         1.6081  -14.8706   -2.2225 H         1 <0>         0.0548
     59 H27         1.7978  -14.2518   -0.5644 H         1 <0>         0.0561
     60 H28         0.5106  -16.2632   -0.6218 H         1 <0>         0.3760
@<TRIPOS>BOND
     1    1    2 1
     2    1   34 1
     3    1   35 1
     4    1   36 1
     5    2    3 1
     6    2   37 1
     7    2   38 1
     8    3    4 1
     9    3   39 1
    10    3   40 1
    11    4    5 1
    12    4   41 1
    13    4   42 1
    14    5    6 1
    15    6   11 ar
    16    6    7 ar
    17    7    8 ar
    18    7   43 1
    19    8    9 ar
    20    8   44 1
    21    9   10 ar
    22    9   13 1
    23   10   11 ar
    24   10   45 1
    25   11   12 1
    26   12   46 1
    27   12   47 1
    28   12   48 1
    29   13   14 2
    30   13   15 1
    31   15   20 1
    32   15   16 2
    33   16   17 1
    34   16   33 1
    35   17   18 2
    36   17   19 am
    37   19   20 1
    38   19   27 1
    39   20   21 1
    40   20   22 1
    41   22   26 1
    42   22   23 2
    43   23   24 1
    44   23   49 1
    45   24   25 2
    46   24   50 1
    47   25   26 1
    48   25   51 1
    49   27   28 1
    50   27   52 1
    51   27   53 1
    52   28   29 1
    53   28   54 1
    54   28   55 1
    55   29   30 1
    56   30   31 1
    57   30   56 1
    58   30   57 1
    59   31   32 1
    60   31   58 1
    61   31   59 1
    62   32   60 1
@<TRIPOS>MOLECULE
ZINC02078425
   58    61     0     0     0
SMALL
USER_CHARGES
N-[[3-ethoxy-4-[(4-fluorophenyl)methoxy]phenyl]methyleneamino]-2-pyrrol-1-yl-benzamide
@<TRIPOS>ATOM
      1 C1          0.2583   -4.0083   -1.9208 C.3       1 <0>        -0.1528
      2 C2          0.0230   -2.5285   -1.6115 C.3       1 <0>         0.0525
      3 O1          1.2776   -1.8854   -1.3779 O.3       1 <0>        -0.3022
      4 C3          1.2459   -0.5573   -1.0872 C.ar      1 <0>         0.1003
      5 C4          0.0360    0.1087   -1.0287 C.ar      1 <0>        -0.1444
      6 C5          0.0072    1.4732   -0.7293 C.ar      1 <0>        -0.0573
      7 C6          1.2016    2.1578   -0.4905 C.ar      1 <0>        -0.0680
      8 C7          2.4047    1.4867   -0.5506 C.ar      1 <0>        -0.1796
      9 C8          2.4329    0.1318   -0.8479 C.ar      1 <0>         0.1218
     10 O2          3.6216   -0.5249   -0.9064 O.3       1 <0>        -0.2945
     11 C9          4.7998    0.2423   -0.6505 C.3       1 <0>         0.0994
     12 C10         6.0116   -0.6470   -0.7588 C.ar      1 <0>        -0.1076
     13 C11         6.4852   -1.3082    0.3591 C.ar      1 <0>        -0.0639
     14 C12         7.5935   -2.1278    0.2600 C.ar      1 <0>        -0.1568
     15 C13         8.2360   -2.2782   -0.9572 C.ar      1 <0>         0.1102
     16 C14         7.7639   -1.6114   -2.0750 C.ar      1 <0>        -0.1568
     17 C15         6.6523   -0.7965   -1.9747 C.ar      1 <0>        -0.0638
     18 F1          9.3224   -3.0755   -1.0543 F         1 <0>        -0.1367
     19 C16        -1.2796    2.1900   -0.6715 C.2       1 <0>         0.1160
     20 N1         -1.3045    3.4577   -0.3932 N.2       1 <0>        -0.2237
     21 N2         -2.5275    4.1389   -0.3383 N.am      1 <0>        -0.5804
     22 C17        -2.5534    5.4551   -0.0493 C.2       1 <0>         0.5672
     23 O3         -1.5150    6.0514    0.1638 O.2       1 <0>        -0.4669
     24 C18        -3.8412    6.1724    0.0085 C.ar      1 <0>        -0.1385
     25 C19        -5.0428    5.4687   -0.1002 C.ar      1 <0>        -0.0739
     26 C20        -6.2428    6.1441   -0.0401 C.ar      1 <0>        -0.1223
     27 C21        -6.2634    7.5204    0.1166 C.ar      1 <0>        -0.0726
     28 C22        -5.0831    8.2295    0.2197 C.ar      1 <0>        -0.1231
     29 C23        -3.8660    7.5655    0.1671 C.ar      1 <0>         0.1876
     30 N3         -2.6711    8.2811    0.2721 N.pl3     1 <0>        -0.4099
     31 C24        -2.3155    9.0900    1.3145 C.2       1 <0>        -0.0173
     32 C25        -1.0954    9.6008    1.0537 C.2       1 <0>        -0.1842
     33 C26        -0.6841    9.0975   -0.1975 C.2       1 <0>        -0.2003
     34 C27        -1.6656    8.2936   -0.6532 C.2       1 <0>         0.0436
     35 H1         -0.6987   -4.4989   -2.0989 H         1 <0>         0.0786
     36 H2          0.8839   -4.0989   -2.8087 H         1 <0>         0.0671
     37 H3          0.7572   -4.4815   -1.0750 H         1 <0>         0.0670
     38 H4         -0.6026   -2.4379   -0.7235 H         1 <0>         0.0618
     39 H5         -0.4759   -2.0554   -2.4573 H         1 <0>         0.0619
     40 H6         -0.8848   -0.4245   -1.2136 H         1 <0>         0.1402
     41 H7          1.1826    3.2125   -0.2584 H         1 <0>         0.1413
     42 H8          3.3272    2.0170   -0.3662 H         1 <0>         0.1408
     43 H9          4.8743    1.0483   -1.3805 H         1 <0>         0.0761
     44 H10         4.7476    0.6646    0.3530 H         1 <0>         0.0761
     45 H11         5.9864   -1.1875    1.3094 H         1 <0>         0.1358
     46 H12         7.9609   -2.6475    1.1326 H         1 <0>         0.1395
     47 H13         8.2640   -1.7282   -3.0251 H         1 <0>         0.1395
     48 H14         6.2837   -0.2765   -2.8465 H         1 <0>         0.1359
     49 H15        -2.2017    1.6605   -0.8607 H         1 <0>         0.1200
     50 H16        -3.3557    3.6633   -0.5082 H         1 <0>         0.3836
     51 H17        -5.0318    4.3962   -0.2269 H         1 <0>         0.1321
     52 H18        -7.1713    5.5982   -0.1194 H         1 <0>         0.1389
     53 H19        -7.2083    8.0418    0.1581 H         1 <0>         0.1404
     54 H20        -5.1074    9.3024    0.3417 H         1 <0>         0.1412
     55 H21        -2.9084    9.2847    2.1959 H         1 <0>         0.1585
     56 H22        -0.5368   10.2751    1.6859 H         1 <0>         0.1367
     57 H23         0.2469    9.3164   -0.6992 H         1 <0>         0.1354
     58 H24        -1.6587    7.7532   -1.5883 H         1 <0>         0.1502
@<TRIPOS>BOND
     1    1    2 1
     2    1   35 1
     3    1   36 1
     4    1   37 1
     5    2    3 1
     6    2   38 1
     7    2   39 1
     8    3    4 1
     9    4    9 ar
    10    4    5 ar
    11    5    6 ar
    12    5   40 1
    13    6    7 ar
    14    6   19 1
    15    7    8 ar
    16    7   41 1
    17    8    9 ar
    18    8   42 1
    19    9   10 1
    20   10   11 1
    21   11   12 1
    22   11   43 1
    23   11   44 1
    24   12   17 ar
    25   12   13 ar
    26   13   14 ar
    27   13   45 1
    28   14   15 ar
    29   14   46 1
    30   15   16 ar
    31   15   18 1
    32   16   17 ar
    33   16   47 1
    34   17   48 1
    35   19   20 2
    36   19   49 1
    37   20   21 1
    38   21   22 am
    39   21   50 1
    40   22   23 2
    41   22   24 1
    42   24   29 ar
    43   24   25 ar
    44   25   26 ar
    45   25   51 1
    46   26   27 ar
    47   26   52 1
    48   27   28 ar
    49   27   53 1
    50   28   29 ar
    51   28   54 1
    52   29   30 1
    53   30   34 1
    54   30   31 1
    55   31   32 2
    56   31   55 1
    57   32   33 1
    58   32   56 1
    59   33   34 2
    60   33   57 1
    61   34   58 1
@<TRIPOS>MOLECULE
ZINC00739118
   61    63     0     0     0
SMALL
USER_CHARGES
2-[benzyl-(2-chloroacetyl)amino]-N-[5-tert-butyl-2-(m-tolyl)pyrazol-3-yl]acetamide
@<TRIPOS>ATOM
      1 C1          3.7146    2.6008   -0.1109 C.3       1 <0>        -0.1188
      2 C2          2.3016    3.1196   -0.0394 C.ar      1 <0>        -0.0580
      3 C3          1.2482    2.2363    0.1115 C.ar      1 <0>        -0.1254
      4 C4         -0.0501    2.7080    0.1717 C.ar      1 <0>        -0.0863
      5 C5         -0.2978    4.0647    0.0927 C.ar      1 <0>        -0.1590
      6 C6          0.7575    4.9539   -0.0583 C.ar      1 <0>         0.1641
      7 C7          2.0599    4.4766   -0.1242 C.ar      1 <0>        -0.1118
      8 N1          0.5090    6.3306   -0.1436 N.pl3     1 <0>        -0.3439
      9 C8         -0.5661    6.9163   -0.7382 C.2       1 <0>         0.3078
     10 C9         -0.4254    8.2631   -0.5997 C.2       1 <0>        -0.2582
     11 C10         0.7635    8.5012    0.0956 C.2       1 <0>         0.1100
     12 N2          1.3196    7.3494    0.3731 N.2       1 <0>        -0.2737
     13 C11         1.3095    9.8554    0.4686 C.3       1 <0>         0.0125
     14 C12         0.5052   10.4249    1.6388 C.3       1 <0>        -0.1369
     15 C13         2.7775    9.7184    0.8774 C.3       1 <0>        -0.1377
     16 C14         1.2002   10.7976   -0.7319 C.3       1 <0>        -0.1385
     17 N3         -1.6189    6.2575   -1.3723 N.am      1 <0>        -0.6504
     18 C15        -2.6245    6.9670   -1.9217 C.2       1 <0>         0.5035
     19 O1         -2.6137    8.1786   -1.8646 O.2       1 <0>        -0.4883
     20 C16        -3.7623    6.2551   -2.6069 C.3       1 <0>         0.1053
     21 N4         -4.7189    7.2407   -3.1165 N.am      1 <0>        -0.5894
     22 C17        -5.8300    7.6873   -2.2726 C.3       1 <0>         0.1474
     23 C18        -6.9704    6.7085   -2.3839 C.ar      1 <0>        -0.1151
     24 C19        -8.0102    6.9555   -3.2607 C.ar      1 <0>        -0.1108
     25 C20        -9.0538    6.0551   -3.3663 C.ar      1 <0>        -0.1144
     26 C21        -9.0627    4.9128   -2.5879 C.ar      1 <0>        -0.1115
     27 C22        -8.0257    4.6687   -1.7070 C.ar      1 <0>        -0.1159
     28 C23        -6.9795    5.5664   -1.6052 C.ar      1 <0>        -0.1055
     29 C24        -4.5768    7.7365   -4.3617 C.2       1 <0>         0.5158
     30 O2         -3.6074    7.4376   -5.0264 O.2       1 <0>        -0.5028
     31 C25        -5.6224    8.6623   -4.9279 C.3       1 <0>        -0.0697
     32 Cl1        -5.2160    9.0518   -6.6408 Cl        1 <0>        -0.1247
     33 H1          3.9748    2.3972   -1.1496 H         1 <0>         0.0763
     34 H2          4.3969    3.3478    0.2949 H         1 <0>         0.0709
     35 H3          3.7943    1.6822    0.4704 H         1 <0>         0.0725
     36 H4          1.4397    1.1755    0.1779 H         1 <0>         0.1312
     37 H5         -0.8710    2.0154    0.2848 H         1 <0>         0.1352
     38 H6         -1.3118    4.4330    0.1447 H         1 <0>         0.1239
     39 H7          2.8829    5.1660   -0.2421 H         1 <0>         0.1351
     40 H8         -1.1107    9.0146   -0.9632 H         1 <0>         0.1766
     41 H9          0.5831    9.7536    2.4941 H         1 <0>         0.0563
     42 H10         0.9001   11.4044    1.9086 H         1 <0>         0.0657
     43 H11        -0.5407   10.5225    1.3476 H         1 <0>         0.0603
     44 H12         3.3505    9.3126    0.0437 H         1 <0>         0.0566
     45 H13         3.1724   10.6979    1.1471 H         1 <0>         0.0605
     46 H14         2.8554    9.0471    1.7326 H         1 <0>         0.0611
     47 H15         0.1544   10.8952   -1.0232 H         1 <0>         0.0624
     48 H16         1.5951   11.7771   -0.4622 H         1 <0>         0.0650
     49 H17         1.7732   10.3918   -1.5656 H         1 <0>         0.0570
     50 H18        -1.6275    5.2887   -1.4179 H         1 <0>         0.4124
     51 H19        -3.3740    5.6633   -3.4359 H         1 <0>         0.1230
     52 H20        -4.2618    5.5986   -1.8945 H         1 <0>         0.1165
     53 H21        -5.4990    7.7431   -1.2356 H         1 <0>         0.0963
     54 H22        -6.1629    8.6719   -2.6012 H         1 <0>         0.0957
     55 H23        -8.0053    7.8500   -3.8659 H         1 <0>         0.1228
     56 H24        -9.8642    6.2461   -4.0543 H         1 <0>         0.1263
     57 H25        -9.8799    4.2113   -2.6677 H         1 <0>         0.1248
     58 H26        -8.0328    3.7764   -1.0986 H         1 <0>         0.1250
     59 H27        -6.1693    5.3756   -0.9170 H         1 <0>         0.1206
     60 H28        -6.5976    8.1772   -4.8872 H         1 <0>         0.1237
     61 H29        -5.6490    9.5815   -4.3428 H         1 <0>         0.1263
@<TRIPOS>BOND
     1    1    2 1
     2    1   33 1
     3    1   34 1
     4    1   35 1
     5    2    7 ar
     6    2    3 ar
     7    3    4 ar
     8    3   36 1
     9    4    5 ar
    10    4   37 1
    11    5    6 ar
    12    5   38 1
    13    6    7 ar
    14    6    8 1
    15    7   39 1
    16    8   12 1
    17    8    9 1
    18    9   10 2
    19    9   17 1
    20   10   11 1
    21   10   40 1
    22   11   12 2
    23   11   13 1
    24   13   14 1
    25   13   15 1
    26   13   16 1
    27   14   41 1
    28   14   42 1
    29   14   43 1
    30   15   44 1
    31   15   45 1
    32   15   46 1
    33   16   47 1
    34   16   48 1
    35   16   49 1
    36   17   18 am
    37   17   50 1
    38   18   19 2
    39   18   20 1
    40   20   21 1
    41   20   51 1
    42   20   52 1
    43   21   22 1
    44   21   29 am
    45   22   23 1
    46   22   53 1
    47   22   54 1
    48   23   28 ar
    49   23   24 ar
    50   24   25 ar
    51   24   55 1
    52   25   26 ar
    53   25   56 1
    54   26   27 ar
    55   26   57 1
    56   27   28 ar
    57   27   58 1
    58   28   59 1
    59   29   30 2
    60   29   31 1
    61   31   32 1
    62   31   60 1
    63   31   61 1
@<TRIPOS>MOLECULE
ZINC35130283
   61    63     0     0     0
SMALL
USER_CHARGES

@<TRIPOS>ATOM
      1 C1          0.0855    1.6559    0.0486 C.3       1 <0>        -0.1519
      2 C2          0.0930    0.1267   -0.0005 C.3       1 <0>        -0.1441
      3 C3          0.8050   -0.4198    1.2386 C.3       1 <0>         0.1094
      4 N1          0.8122   -1.8840    1.1916 N.am      1 <0>        -0.5966
      5 C4          1.9205   -2.5907    0.5446 C.3       1 <0>         0.1022
      6 C5          2.9993   -2.8693    1.5593 C.2       1 <0>         0.5037
      7 O1          2.8565   -2.5126    2.7097 O.2       1 <0>        -0.4885
      8 N2          4.1228   -3.5147    1.1884 N.am      1 <0>        -0.6506
      9 C6          5.1210   -3.7725    2.1273 C.2       1 <0>         0.3090
     10 C7          5.1493   -3.3311    3.4147 C.2       1 <0>        -0.2550
     11 C8          6.3189   -3.8140    4.0083 C.2       1 <0>         0.1071
     12 N3          6.9741   -4.5185    3.1212 N.2       1 <0>        -0.2577
     13 N4          6.2428   -4.5163    1.9264 N.pl3     1 <0>        -0.3489
     14 C9          6.6036   -5.1623    0.7357 C.ar      1 <0>         0.1602
     15 C10         6.5611   -4.4743   -0.4694 C.ar      1 <0>        -0.1285
     16 C11         6.9175   -5.1131   -1.6410 C.ar      1 <0>        -0.0932
     17 C12         7.3166   -6.4370   -1.6151 C.ar      1 <0>        -0.1045
     18 C13         7.3603   -7.1257   -0.4171 C.ar      1 <0>        -0.0933
     19 C14         7.0099   -6.4906    0.7597 C.ar      1 <0>        -0.0293
     20 Cl1         7.0712   -7.3537    2.2647 Cl        1 <0>        -0.0362
     21 C15         6.7525   -3.5649    5.4299 C.3       1 <0>         0.0135
     22 C16         5.9115   -4.4228    6.3774 C.3       1 <0>        -0.1372
     23 C17         8.2296   -3.9326    5.5844 C.3       1 <0>        -0.1371
     24 C18         6.5567   -2.0864    5.7713 C.3       1 <0>        -0.1374
     25 C19        -0.2007   -2.5810    1.7436 C.2       1 <0>         0.5333
     26 O2         -0.1948   -3.7932    1.7047 O.2       1 <0>        -0.5320
     27 C20        -1.3407   -1.8541    2.4091 C.3       1 <0>        -0.1373
     28 C21        -1.0404   -1.4316    3.8569 C.3       1 <0>        -0.1209
     29 C22        -2.4859   -1.8358    4.1916 C.3       1 <0>        -0.1421
     30 C23        -2.4142   -2.7907    2.9883 C.3       1 <0>        -0.1187
     31 H1          1.1113    2.0238    0.0700 H         1 <0>         0.0572
     32 H2         -0.4217    2.0453   -0.8342 H         1 <0>         0.0600
     33 H3         -0.4384    1.9881    0.9448 H         1 <0>         0.0582
     34 H4         -0.9328   -0.2412   -0.0220 H         1 <0>         0.0668
     35 H5          0.6170   -0.2055   -0.8967 H         1 <0>         0.0663
     36 H6          1.8308   -0.0519    1.2600 H         1 <0>         0.0806
     37 H7          0.2811   -0.0876    2.1348 H         1 <0>         0.0878
     38 H8          1.5590   -3.5321    0.1309 H         1 <0>         0.1200
     39 H9          2.3263   -1.9736   -0.2571 H         1 <0>         0.1146
     40 H10         4.2370   -3.8000    0.2684 H         1 <0>         0.4106
     41 H11         4.4008   -2.7165    3.8926 H         1 <0>         0.1748
     42 H12         6.2492   -3.4405   -0.4909 H         1 <0>         0.1350
     43 H13         6.8842   -4.5781   -2.5786 H         1 <0>         0.1416
     44 H14         7.5944   -6.9340   -2.5328 H         1 <0>         0.1416
     45 H15         7.6724   -8.1595   -0.4001 H         1 <0>         0.1443
     46 H16         6.0511   -5.4761    6.1342 H         1 <0>         0.0560
     47 H17         6.2252   -4.2426    7.4056 H         1 <0>         0.0651
     48 H18         4.8592   -4.1608    6.2674 H         1 <0>         0.0605
     49 H19         8.8287   -3.3215    4.9094 H         1 <0>         0.0565
     50 H20         8.5433   -3.7525    6.6127 H         1 <0>         0.0596
     51 H21         8.3691   -4.9860    5.3413 H         1 <0>         0.0611
     52 H22         5.5043   -1.8244    5.6612 H         1 <0>         0.0617
     53 H23         6.8703   -1.9062    6.7995 H         1 <0>         0.0643
     54 H24         7.1558   -1.4752    5.0963 H         1 <0>         0.0565
     55 H25        -1.7475   -1.0513    1.7941 H         1 <0>         0.1141
     56 H26        -0.2893   -2.0519    4.3459 H         1 <0>         0.0877
     57 H27        -0.8482   -0.3646    3.9695 H         1 <0>         0.0753
     58 H28        -2.5859   -2.3468    5.1492 H         1 <0>         0.0738
     59 H29        -3.2058   -1.0272    4.0650 H         1 <0>         0.0842
     60 H30        -3.3310   -2.8208    2.3995 H         1 <0>         0.0725
     61 H31        -2.0386   -3.7825    3.2398 H         1 <0>         0.0942
@<TRIPOS>BOND
     1    1    2 1
     2    1   31 1
     3    1   32 1
     4    1   33 1
     5    2    3 1
     6    2   34 1
     7    2   35 1
     8    3    4 1
     9    3   36 1
    10    3   37 1
    11    4    5 1
    12    4   25 am
    13    5    6 1
    14    5   38 1
    15    5   39 1
    16    6    7 2
    17    6    8 am
    18    8    9 1
    19    8   40 1
    20    9   13 1
    21    9   10 2
    22   10   11 1
    23   10   41 1
    24   11   12 2
    25   11   21 1
    26   12   13 1
    27   13   14 1
    28   14   19 ar
    29   14   15 ar
    30   15   16 ar
    31   15   42 1
    32   16   17 ar
    33   16   43 1
    34   17   18 ar
    35   17   44 1
    36   18   19 ar
    37   18   45 1
    38   19   20 1
    39   21   22 1
    40   21   23 1
    41   21   24 1
    42   22   46 1
    43   22   47 1
    44   22   48 1
    45   23   49 1
    46   23   50 1
    47   23   51 1
    48   24   52 1
    49   24   53 1
    50   24   54 1
    51   25   26 2
    52   25   27 1
    53   27   30 1
    54   27   28 1
    55   27   55 1
    56   28   29 1
    57   28   56 1
    58   28   57 1
    59   29   30 1
    60   29   58 1
    61   29   59 1
    62   30   60 1
    63   30   61 1
@<TRIPOS>MOLECULE
ZINC36588540
   72    73     0     0     0
SMALL
USER_CHARGES

@<TRIPOS>ATOM
      1 C1         -2.7987    0.4753    3.5857 C.3       1 <0>        -0.1308
      2 C2         -2.1336   -0.5409    2.6935 C.2       1 <0>        -0.1353
      3 C3         -2.8623   -1.3460    1.9608 C.2       1 <0>        -0.1897
      4 C4         -2.1971   -2.3578    1.0637 C.3       1 <0>         0.1547
      5 H1         -2.1708   -1.9766    0.0429 H         1 <0>         0.1308
      6 C5         -2.9749   -3.6481    1.0983 C.2       1 <0>         0.5093
      7 O1         -2.4358   -4.6716    1.4625 O.2       1 <0>        -0.5123
      8 N1         -4.2697   -3.6646    0.7244 N.am      1 <0>        -0.7173
      9 C6         -5.0259   -4.9189    0.7580 C.3       1 <0>         0.1745
     10 C7         -4.5984   -5.8037   -0.4147 C.3       1 <0>        -0.1596
     11 C8         -4.7473   -5.6472    2.0744 C.3       1 <0>        -0.1751
     12 C9         -6.5216   -4.6158    0.6495 C.3       1 <0>        -0.1168
     13 C10        -6.8157   -3.2610    1.2968 C.3       1 <0>        -0.0689
     14 C11        -6.5438   -2.1437    0.2875 C.3       1 <0>        -0.1571
     15 C12        -8.2820   -3.2106    1.7306 C.3       1 <0>        -0.1410
     16 C13        -5.9154   -3.0738    2.5196 C.3       1 <0>        -0.1950
     17 N2         -0.8295   -2.5994    1.5300 N.am      1 <0>        -0.5818
     18 C14         0.2128   -2.3795    0.7043 C.2       1 <0>         0.5242
     19 O2          0.0164   -2.1110   -0.4620 O.2       1 <0>        -0.5264
     20 C15         1.6223   -2.4670    1.2303 C.3       1 <0>        -0.1149
     21 C16         2.5805   -2.6170    0.0769 C.ar      1 <0>        -0.0634
     22 C17         2.9140   -3.8773   -0.3835 C.ar      1 <0>        -0.0973
     23 C18         3.7920   -4.0199   -1.4416 C.ar      1 <0>        -0.0977
     24 C19         4.3407   -2.8990   -2.0432 C.ar      1 <0>         0.0328
     25 C20         4.0049   -1.6295   -1.5795 C.ar      1 <0>         0.0333
     26 C21         3.1197   -1.4940   -0.5223 C.ar      1 <0>        -0.0799
     27 O3          4.6690   -0.7016   -2.3286 O.3       1 <0>        -0.3085
     28 C22         5.7268   -1.4241   -2.9862 C.3       1 <0>         0.2131
     29 O4          5.2152   -2.7665   -3.0829 O.3       1 <0>        -0.3090
     30 C23        -0.5948   -3.0801    2.8939 C.3       1 <0>         0.1764
     31 C24        -1.9246   -3.1451    3.6476 C.3       1 <0>        -0.1972
     32 C25         0.0309   -4.4754    2.8422 C.3       1 <0>        -0.1755
     33 C26         0.3545   -2.1219    3.6161 C.3       1 <0>        -0.2053
     34 H2         -2.0371    1.0494    4.1133 H         1 <0>         0.0645
     35 H3         -3.4063    1.1479    2.9803 H         1 <0>         0.0695
     36 H4         -3.4338   -0.0364    4.3088 H         1 <0>         0.0688
     37 H5         -1.0561   -0.6055    2.6582 H         1 <0>         0.1272
     38 H6         -3.9399   -1.2846    1.9996 H         1 <0>         0.1255
     39 H7         -4.7009   -2.8460    0.4331 H         1 <0>         0.4056
     40 H8         -3.5549   -6.0929   -0.2901 H         1 <0>         0.0669
     41 H9         -5.2222   -6.6971   -0.4421 H         1 <0>         0.0651
     42 H10        -4.7135   -5.2514   -1.3473 H         1 <0>         0.0553
     43 H11        -4.8713   -4.9541    2.9065 H         1 <0>         0.0681
     44 H12        -5.4456   -6.4768    2.1855 H         1 <0>         0.0562
     45 H13        -3.7266   -6.0297    2.0692 H         1 <0>         0.0883
     46 H14        -6.8112   -4.5871   -0.4009 H         1 <0>         0.0712
     47 H15        -7.0881   -5.3937    1.1614 H         1 <0>         0.0800
     48 H16        -6.6613   -2.5317   -0.7244 H         1 <0>         0.0637
     49 H17        -7.2497   -1.3289    0.4485 H         1 <0>         0.0670
     50 H18        -5.5267   -1.7747    0.4193 H         1 <0>         0.0561
     51 H19        -8.4758   -4.0065    2.4496 H         1 <0>         0.0555
     52 H20        -8.4916   -2.2454    2.1917 H         1 <0>         0.0559
     53 H21        -8.9235   -3.3439    0.8594 H         1 <0>         0.0552
     54 H22        -4.8712   -3.1584    2.2184 H         1 <0>         0.1032
     55 H23        -6.0901   -2.0887    2.9521 H         1 <0>         0.0472
     56 H24        -6.1434   -3.8411    3.2595 H         1 <0>         0.0575
     57 H25         1.8603   -1.5592    1.7847 H         1 <0>         0.1173
     58 H26         1.7108   -3.3297    1.8906 H         1 <0>         0.1232
     59 H27         2.4878   -4.7522    0.0848 H         1 <0>         0.1362
     60 H28         4.0508   -5.0057   -1.7991 H         1 <0>         0.1368
     61 H29         2.8540   -0.5106   -0.1635 H         1 <0>         0.1332
     62 H30         5.9124   -1.0125   -3.9783 H         1 <0>         0.1321
     63 H31         6.6360   -1.4030   -2.3855 H         1 <0>         0.0851
     64 H32        -2.6366   -3.7420    3.0776 H         1 <0>         0.0880
     65 H33        -1.7667   -3.6027    4.6243 H         1 <0>         0.0608
     66 H34        -2.3180   -2.1370    3.7780 H         1 <0>         0.0805
     67 H35         0.9241   -4.4502    2.2180 H         1 <0>         0.0589
     68 H36         0.3010   -4.7900    3.8503 H         1 <0>         0.0632
     69 H37        -0.6865   -5.1800    2.4217 H         1 <0>         0.0915
     70 H38        -0.1085   -1.1377    3.6885 H         1 <0>         0.0712
     71 H39         0.5611   -2.5008    4.6170 H         1 <0>         0.0737
     72 H40         1.2871   -2.0445    3.0573 H         1 <0>         0.0815
@<TRIPOS>BOND
     1    1    2 1
     2    1   34 1
     3    1   35 1
     4    1   36 1
     5    2    3 2
     6    2   37 1
     7    3    4 1
     8    3   38 1
     9    4    5 1
    10    4    6 1
    11    4   17 1
    12    6    7 2
    13    6    8 am
    14    8    9 1
    15    8   39 1
    16    9   10 1
    17    9   11 1
    18    9   12 1
    19   10   40 1
    20   10   41 1
    21   10   42 1
    22   11   43 1
    23   11   44 1
    24   11   45 1
    25   12   13 1
    26   12   46 1
    27   12   47 1
    28   13   14 1
    29   13   15 1
    30   13   16 1
    31   14   48 1
    32   14   49 1
    33   14   50 1
    34   15   51 1
    35   15   52 1
    36   15   53 1
    37   16   54 1
    38   16   55 1
    39   16   56 1
    40   17   18 am
    41   17   30 1
    42   18   19 2
    43   18   20 1
    44   20   21 1
    45   20   57 1
    46   20   58 1
    47   21   26 ar
    48   21   22 ar
    49   22   23 ar
    50   22   59 1
    51   23   24 ar
    52   23   60 1
    53   24   29 1
    54   24   25 ar
    55   25   26 ar
    56   25   27 1
    57   26   61 1
    58   27   28 1
    59   28   29 1
    60   28   62 1
    61   28   63 1
    62   30   31 1
    63   30   32 1
    64   30   33 1
    65   31   64 1
    66   31   65 1
    67   31   66 1
    68   32   67 1
    69   32   68 1
    70   32   69 1
    71   33   70 1
    72   33   71 1
    73   33   72 1
@<TRIPOS>MOLECULE
ZINC54641930
   54    57     0     0     0
SMALL
USER_CHARGES

@<TRIPOS>ATOM
      1 C1         -3.6811    1.2589   -3.1559 C.3       1 <0>        -0.1517
      2 C2         -3.7460   -0.2625   -3.0074 C.3       1 <0>        -0.1223
      3 C3         -3.1192   -0.6718   -1.6730 C.3       1 <0>         0.0611
      4 O1         -3.1798   -2.0928   -1.5344 O.3       1 <0>        -0.3421
      5 C4         -2.6653   -2.6206   -0.4037 C.2       1 <0>         0.5434
      6 O2         -2.1784   -1.8923    0.4411 O.2       1 <0>        -0.4906
      7 C5         -2.6918   -4.0184   -0.2010 C.2       1 <0>        -0.2789
      8 C6         -3.8617   -4.5973    0.1116 C.2       1 <0>         0.2309
      9 N1         -3.9730   -5.9467    0.3355 N.pl3     1 <0>        -0.6080
     10 C7         -2.7971   -6.6684    0.4890 C.2       1 <0>         0.5062
     11 N2         -2.6092   -7.8861    0.9200 N.2       1 <0>        -0.5430
     12 C8         -1.2984   -8.1691    0.9056 C.2       1 <0>         0.2167
     13 N3         -0.6388   -7.1220    0.4588 N.2       1 <0>        -0.2606
     14 N4         -1.5877   -6.1396    0.1796 N.pl3     1 <0>        -0.3815
     15 C9         -1.4078   -4.7897   -0.3516 C.3       1 <0>         0.2864
     16 H1         -0.6146   -4.2867    0.2014 H         1 <0>         0.1163
     17 C10        -1.0346   -4.8643   -1.8097 C.ar      1 <0>        -0.1214
     18 C11        -1.8953   -5.4589   -2.7135 C.ar      1 <0>        -0.0551
     19 C12        -1.5542   -5.5275   -4.0510 C.ar      1 <0>        -0.1520
     20 C13        -0.3500   -5.0002   -4.4857 C.ar      1 <0>         0.1144
     21 C14         0.5112   -4.4049   -3.5796 C.ar      1 <0>        -0.1510
     22 C15         0.1657   -4.3329   -2.2435 C.ar      1 <0>        -0.0615
     23 F1         -0.0154   -5.0671   -5.7929 F         1 <0>        -0.1350
     24 S1         -0.5759   -9.6965    1.4054 S.3       1 <0>         0.0368
     25 C16        -1.9944  -10.7091    1.9084 C.3       1 <0>        -0.0660
     26 C17        -1.5098  -12.0611    2.3648 C.ar      1 <0>        -0.1173
     27 C18        -1.3832  -13.0936    1.4546 C.ar      1 <0>        -0.0700
     28 C19        -0.9387  -14.3338    1.8729 C.ar      1 <0>        -0.1296
     29 C20        -0.6202  -14.5430    3.2020 C.ar      1 <0>        -0.0801
     30 C21        -0.7456  -13.5122    4.1136 C.ar      1 <0>        -0.1544
     31 C22        -1.1858  -12.2679    3.6947 C.ar      1 <0>         0.1192
     32 F2         -1.3042  -11.2580    4.5843 F         1 <0>        -0.1309
     33 C23        -5.0940   -3.7367    0.2208 C.3       1 <0>        -0.1350
     34 H2         -4.1276    1.5506   -4.1065 H         1 <0>         0.0661
     35 H3         -4.2289    1.7275   -2.3383 H         1 <0>         0.0587
     36 H4         -2.6407    1.5826   -3.1287 H         1 <0>         0.0588
     37 H5         -4.7865   -0.5862   -3.0346 H         1 <0>         0.0740
     38 H6         -3.1982   -0.7310   -3.8250 H         1 <0>         0.0743
     39 H7         -2.0788   -0.3481   -1.6458 H         1 <0>         0.0697
     40 H8         -3.6670   -0.2033   -0.8554 H         1 <0>         0.0696
     41 H9         -4.8397   -6.3793    0.3849 H         1 <0>         0.4430
     42 H10        -2.8344   -5.8704   -2.3741 H         1 <0>         0.1224
     43 H11        -2.2266   -5.9924   -4.7568 H         1 <0>         0.1388
     44 H12         1.4509   -3.9936   -3.9176 H         1 <0>         0.1420
     45 H13         0.8353   -3.8646   -1.5373 H         1 <0>         0.1372
     46 H14        -2.5206  -10.2167    2.7261 H         1 <0>         0.1060
     47 H15        -2.6711  -10.8321    1.0628 H         1 <0>         0.1090
     48 H16        -1.6321  -12.9314    0.4163 H         1 <0>         0.1375
     49 H17        -0.8405  -15.1400    1.1611 H         1 <0>         0.1344
     50 H18        -0.2737  -15.5126    3.5279 H         1 <0>         0.1362
     51 H19        -0.4970  -13.6760    5.1518 H         1 <0>         0.1396
     52 H20        -5.5321   -3.6023   -0.7682 H         1 <0>         0.1058
     53 H21        -5.8181   -4.2206    0.8763 H         1 <0>         0.0915
     54 H22        -4.8231   -2.7649    0.6333 H         1 <0>         0.0919
@<TRIPOS>BOND
     1    1    2 1
     2    1   34 1
     3    1   35 1
     4    1   36 1
     5    2    3 1
     6    2   37 1
     7    2   38 1
     8    3    4 1
     9    3   39 1
    10    3   40 1
    11    4    5 1
    12    5    6 2
    13    5    7 1
    14    7   15 1
    15    7    8 2
    16    8    9 1
    17    8   33 1
    18    9   10 1
    19    9   41 1
    20   10   14 1
    21   10   11 2
    22   11   12 1
    23   12   13 2
    24   12   24 1
    25   13   14 1
    26   14   15 1
    27   15   16 1
    28   15   17 1
    29   17   22 ar
    30   17   18 ar
    31   18   19 ar
    32   18   42 1
    33   19   20 ar
    34   19   43 1
    35   20   21 ar
    36   20   23 1
    37   21   22 ar
    38   21   44 1
    39   22   45 1
    40   24   25 1
    41   25   26 1
    42   25   46 1
    43   25   47 1
    44   26   31 ar
    45   26   27 ar
    46   27   28 ar
    47   27   48 1
    48   28   29 ar
    49   28   49 1
    50   29   30 ar
    51   29   50 1
    52   30   31 ar
    53   30   51 1
    54   31   32 1
    55   33   52 1
    56   33   53 1
    57   33   54 1
@<TRIPOS>MOLECULE
ZINC02506266
   50    52     0     0     0
SMALL
USER_CHARGES
[4-[(5-bromo-2-methoxy-benzoyl)aminoiminomethyl]-2-methoxy-phenyl] 4-chlorobenzoate
@<TRIPOS>ATOM
      1 C1         -2.6235   -8.3375    0.0927 C.3       1 <0>         0.0169
      2 O1         -2.5528   -6.9103    0.0782 O.3       1 <0>        -0.2759
      3 C2         -3.7297   -6.2354    0.0707 C.ar      1 <0>         0.2082
      4 C3         -4.9305   -6.9292    0.0816 C.ar      1 <0>        -0.2107
      5 C4         -6.1276   -6.2415    0.0681 C.ar      1 <0>        -0.0168
      6 C5         -6.1398   -4.8555    0.0491 C.ar      1 <0>        -0.1404
      7 C6         -4.9554   -4.1498    0.0429 C.ar      1 <0>        -0.0182
      8 C7         -3.7371   -4.8339    0.0564 C.ar      1 <0>        -0.1680
      9 C8         -2.4662   -4.0855    0.0494 C.2       1 <0>         0.5815
     10 O2         -1.4077   -4.6845    0.0611 O.2       1 <0>        -0.4716
     11 N1         -2.4778   -2.7380    0.0299 N.am      1 <0>        -0.5820
     12 N2         -1.2706   -2.0271    0.0233 N.2       1 <0>        -0.2111
     13 C9         -1.2817   -0.7292    0.0046 C.2       1 <0>         0.1034
     14 C10        -0.0114    0.0188   -0.0024 C.ar      1 <0>        -0.0064
     15 C11         1.2057   -0.6677    0.0115 C.ar      1 <0>        -0.1008
     16 C12         2.3926    0.0337    0.0054 C.ar      1 <0>        -0.0793
     17 C13         2.3825    1.4211   -0.0146 C.ar      1 <0>         0.0657
     18 C14         1.1727    2.1123   -0.0286 C.ar      1 <0>         0.1273
     19 C15        -0.0215    1.4157   -0.0226 C.ar      1 <0>        -0.1702
     20 O3          1.1667    3.4718   -0.0486 O.3       1 <0>        -0.3082
     21 C16        -0.1095    4.1148   -0.0626 C.3       1 <0>         0.0239
     22 O4          3.5556    2.1077   -0.0201 O.3       1 <0>        -0.2773
     23 C17         3.9859    2.5928    1.1607 C.2       1 <0>         0.5092
     24 O5          3.3853    2.3255    2.1824 O.2       1 <0>        -0.4820
     25 C18         5.1873    3.4494    1.2132 C.ar      1 <0>        -0.1196
     26 C19         5.8833    3.7538    0.0411 C.ar      1 <0>        -0.0468
     27 C20         7.0015    4.5586    0.0960 C.ar      1 <0>        -0.1231
     28 C21         7.4414    5.0559    1.3118 C.ar      1 <0>        -0.0014
     29 C22         6.7588    4.7530    2.4785 C.ar      1 <0>        -0.1216
     30 C23         5.6359    3.9540    2.4359 C.ar      1 <0>        -0.0399
     31 Cl1         8.8537    6.0635    1.3735 Cl        1 <0>        -0.0550
     32 Br1        -7.7880   -3.9287    0.0309 Br        1 <0>        -0.0371
     33 H1         -1.6151   -8.7512    0.0974 H         1 <0>         0.1090
     34 H2         -3.1551   -8.6659    0.9858 H         1 <0>         0.0614
     35 H3         -3.1542   -8.6841   -0.7941 H         1 <0>         0.0614
     36 H4         -4.9291   -8.0091    0.0964 H         1 <0>         0.1493
     37 H5         -7.0599   -6.7866    0.0729 H         1 <0>         0.1445
     38 H6         -4.9692   -3.0700    0.0274 H         1 <0>         0.1400
     39 H7         -3.3220   -2.2603    0.0206 H         1 <0>         0.3851
     40 H8         -2.2216   -0.1974   -0.0058 H         1 <0>         0.1250
     41 H9          1.2165   -1.7475    0.0267 H         1 <0>         0.1484
     42 H10         3.3326   -0.4981    0.0158 H         1 <0>         0.1448
     43 H11        -0.9599    1.9501   -0.0379 H         1 <0>         0.1434
     44 H12        -0.6620    3.8063   -0.9501 H         1 <0>         0.0603
     45 H13        -0.6683    3.8325    0.8297 H         1 <0>         0.0593
     46 H14         0.0286    5.1959   -0.0780 H         1 <0>         0.1045
     47 H15         5.5437    3.3633   -0.9068 H         1 <0>         0.1502
     48 H16         7.5378    4.7986   -0.8102 H         1 <0>         0.1454
     49 H17         7.1067    5.1437    3.4233 H         1 <0>         0.1462
     50 H18         5.1042    3.7191    3.3461 H         1 <0>         0.1488
@<TRIPOS>BOND
     1    1    2 1
     2    1   33 1
     3    1   34 1
     4    1   35 1
     5    2    3 1
     6    3    8 ar
     7    3    4 ar
     8    4    5 ar
     9    4   36 1
    10    5    6 ar
    11    5   37 1
    12    6    7 ar
    13    6   32 1
    14    7    8 ar
    15    7   38 1
    16    8    9 1
    17    9   10 2
    18    9   11 am
    19   11   12 1
    20   11   39 1
    21   12   13 2
    22   13   14 1
    23   13   40 1
    24   14   19 ar
    25   14   15 ar
    26   15   16 ar
    27   15   41 1
    28   16   17 ar
    29   16   42 1
    30   17   18 ar
    31   17   22 1
    32   18   19 ar
    33   18   20 1
    34   19   43 1
    35   20   21 1
    36   21   44 1
    37   21   45 1
    38   21   46 1
    39   22   23 1
    40   23   24 2
    41   23   25 1
    42   25   30 ar
    43   25   26 ar
    44   26   27 ar
    45   26   47 1
    46   27   28 ar
    47   27   48 1
    48   28   29 ar
    49   28   31 1
    50   29   30 ar
    51   29   49 1
    52   30   50 1
@<TRIPOS>MOLECULE
ZINC16435441
   65    67     0     0     0
SMALL
USER_CHARGES
N-[2-[[5-tert-butyl-2-(p-tolyl)pyrazol-3-yl]amino]-2-oxo-ethyl]-3,5-dichloro-N-(2-methoxyethyl)benzamide
@<TRIPOS>ATOM
      1 C1         -1.0918   15.4685   -1.2158 C.3       1 <0>        -0.1173
      2 C2         -1.0353   14.1452   -1.9347 C.ar      1 <0>        -0.0874
      3 C3         -0.2516   14.0072   -3.0655 C.ar      1 <0>        -0.0950
      4 C4         -0.1978   12.7956   -3.7265 C.ar      1 <0>        -0.1045
      5 C5         -0.9316   11.7157   -3.2544 C.ar      1 <0>         0.1521
      6 C6         -1.7218   11.8588   -2.1217 C.ar      1 <0>        -0.1465
      7 C7         -1.7677   13.0716   -1.4623 C.ar      1 <0>        -0.0921
      8 N1         -0.8795   10.4851   -3.9232 N.pl3     1 <0>        -0.3407
      9 C8         -0.9311    9.2546   -3.3441 C.2       1 <0>         0.3059
     10 C9         -0.8567    8.3309   -4.3412 C.2       1 <0>        -0.2569
     11 C10        -0.7515    9.0168   -5.5545 C.2       1 <0>         0.1097
     12 N2         -0.7614   10.3019   -5.3070 N.2       1 <0>        -0.2716
     13 C11        -0.6452    8.3834   -6.9178 C.3       1 <0>         0.0124
     14 C12        -2.0135    7.8420   -7.3368 C.3       1 <0>        -0.1373
     15 C13        -0.1786    9.4301   -7.9315 C.3       1 <0>        -0.1376
     16 C14         0.3646    7.2349   -6.8692 C.3       1 <0>        -0.1386
     17 N3         -1.0453    8.9888   -1.9800 N.am      1 <0>        -0.6486
     18 C15        -1.0910    7.7146   -1.5433 C.2       1 <0>         0.4910
     19 O1         -1.0328    6.7990   -2.3367 O.2       1 <0>        -0.4790
     20 C16        -1.2144    7.4273   -0.0690 C.3       1 <0>         0.0631
     21 N4         -1.2431    5.9784    0.1454 N.am      1 <0>        -0.5779
     22 C17        -2.4925    5.2355   -0.0377 C.3       1 <0>         0.1229
     23 C18        -3.1925    5.0741    1.3132 C.3       1 <0>         0.0418
     24 O2         -3.5845    6.3581    1.8029 O.3       1 <0>        -0.3932
     25 C19        -4.2509    6.3195    3.0665 C.3       1 <0>         0.0317
     26 C20        -0.1203    5.3289    0.5112 C.2       1 <0>         0.5704
     27 O3         -0.1142    4.1151    0.5766 O.2       1 <0>        -0.5096
     28 C21         1.1041    6.0927    0.8328 C.ar      1 <0>        -0.1029
     29 C22         2.0252    5.5858    1.7507 C.ar      1 <0>        -0.0475
     30 C23         3.1666    6.3040    2.0473 C.ar      1 <0>        -0.0258
     31 C24         3.3983    7.5245    1.4362 C.ar      1 <0>        -0.0770
     32 C25         2.4857    8.0350    0.5288 C.ar      1 <0>        -0.0283
     33 C26         1.3432    7.3236    0.2201 C.ar      1 <0>        -0.1066
     34 Cl1         2.7814    9.5696   -0.2270 Cl        1 <0>        -0.0417
     35 Cl2         4.3132    5.6755    3.1892 Cl        1 <0>        -0.0389
     36 H1         -1.9005   16.0718   -1.6282 H         1 <0>         0.0745
     37 H2         -1.2707   15.2979   -0.1542 H         1 <0>         0.0697
     38 H3         -0.1450   15.9929   -1.3450 H         1 <0>         0.0696
     39 H4          0.3193   14.8475   -3.4320 H         1 <0>         0.1335
     40 H5          0.4143   12.6885   -4.6099 H         1 <0>         0.1354
     41 H6         -2.2969   11.0217   -1.7545 H         1 <0>         0.1251
     42 H7         -2.3795   13.1826   -0.5793 H         1 <0>         0.1349
     43 H8         -0.8753    7.2583   -4.2168 H         1 <0>         0.1769
     44 H9         -2.7328    8.6602   -7.3714 H         1 <0>         0.0564
     45 H10        -1.9366    7.3839   -8.3228 H         1 <0>         0.0657
     46 H11        -2.3458    7.0963   -6.6146 H         1 <0>         0.0607
     47 H12         0.7962    9.8158   -7.6330 H         1 <0>         0.0566
     48 H13        -0.1017    8.9720   -8.9175 H         1 <0>         0.0604
     49 H14        -0.8980   10.2483   -7.9661 H         1 <0>         0.0611
     50 H15         0.0322    6.4892   -6.1470 H         1 <0>         0.0626
     51 H16         0.4415    6.7768   -7.8552 H         1 <0>         0.0650
     52 H17         1.3394    7.6206   -6.5707 H         1 <0>         0.0569
     53 H18        -1.0918    9.7210   -1.3455 H         1 <0>         0.4134
     54 H19        -2.1352    7.8693    0.3114 H         1 <0>         0.1296
     55 H20        -0.3613    7.8556    0.4572 H         1 <0>         0.1384
     56 H21        -3.1429    5.7813   -0.7211 H         1 <0>         0.0923
     57 H22        -2.2728    4.2519   -0.4528 H         1 <0>         0.1082
     58 H23        -4.0754    4.4464    1.1922 H         1 <0>         0.0661
     59 H24        -2.5094    4.6075    2.0230 H         1 <0>         0.0576
     60 H25        -4.5155    7.3328    3.3687 H         1 <0>         0.0868
     61 H26        -5.1557    5.7176    2.9819 H         1 <0>         0.0429
     62 H27        -3.5897    5.8788    3.8126 H         1 <0>         0.0416
     63 H28         1.8453    4.6340    2.2283 H         1 <0>         0.1553
     64 H29         4.2923    8.0828    1.6717 H         1 <0>         0.1536
     65 H30         0.6340    7.7208   -0.4911 H         1 <0>         0.1507
@<TRIPOS>BOND
     1    1    2 1
     2    1   36 1
     3    1   37 1
     4    1   38 1
     5    2    7 ar
     6    2    3 ar
     7    3    4 ar
     8    3   39 1
     9    4    5 ar
    10    4   40 1
    11    5    6 ar
    12    5    8 1
    13    6    7 ar
    14    6   41 1
    15    7   42 1
    16    8   12 1
    17    8    9 1
    18    9   10 2
    19    9   17 1
    20   10   11 1
    21   10   43 1
    22   11   12 2
    23   11   13 1
    24   13   14 1
    25   13   15 1
    26   13   16 1
    27   14   44 1
    28   14   45 1
    29   14   46 1
    30   15   47 1
    31   15   48 1
    32   15   49 1
    33   16   50 1
    34   16   51 1
    35   16   52 1
    36   17   18 am
    37   17   53 1
    38   18   19 2
    39   18   20 1
    40   20   21 1
    41   20   54 1
    42   20   55 1
    43   21   22 1
    44   21   26 am
    45   22   23 1
    46   22   56 1
    47   22   57 1
    48   23   24 1
    49   23   58 1
    50   23   59 1
    51   24   25 1
    52   25   60 1
    53   25   61 1
    54   25   62 1
    55   26   27 2
    56   26   28 1
    57   28   33 ar
    58   28   29 ar
    59   29   30 ar
    60   29   63 1
    61   30   31 ar
    62   30   35 1
    63   31   32 ar
    64   31   64 1
    65   32   33 ar
    66   32   34 1
    67   33   65 1
@<TRIPOS>MOLECULE
ZINC35201669
   63    67     0     0     0
SMALL
USER_CHARGES

@<TRIPOS>ATOM
      1 C1         -0.0184    1.5028    0.0103 C.3       1 <0>        -0.1263
      2 C2          0.0021   -0.0041    0.0020 C.ar      1 <0>        -0.0595
      3 C3          0.0057   -0.6888   -1.1991 C.ar      1 <0>        -0.1215
      4 C4          0.0245   -2.0707   -1.2067 C.ar      1 <0>        -0.1011
      5 C5          0.0400   -2.7685   -0.0132 C.ar      1 <0>        -0.1257
      6 C6          0.0373   -2.0840    1.1875 C.ar      1 <0>        -0.0916
      7 C7          0.0229   -0.7015    1.1951 C.ar      1 <0>        -0.0901
      8 C8          0.0252    0.0449    2.5043 C.3       1 <0>        -0.0581
      9 S1         -1.6839    0.3212    3.0458 S.3       1 <0>         0.0135
     10 C9         -1.5132    1.1923    4.5680 C.2       1 <0>         0.1743
     11 N1         -0.3873    1.5477    5.1424 N.2       1 <0>        -0.2788
     12 N2         -0.6329    2.1672    6.2412 N.2       1 <0>        -0.2582
     13 C10        -1.9192    2.2450    6.4348 C.2       1 <0>         0.1846
     14 N3         -2.5286    1.6316    5.3724 N.pl3     1 <0>        -0.4230
     15 C11        -3.9063    1.4828    5.1558 C.ar      1 <0>         0.1539
     16 C12        -4.7006    2.6001    4.9377 C.ar      1 <0>        -0.0982
     17 C13        -6.0571    2.4505    4.7248 C.ar      1 <0>        -0.0360
     18 C14        -6.6241    1.1894    4.7291 C.ar      1 <0>        -0.0319
     19 C15        -5.8353    0.0746    4.9461 C.ar      1 <0>        -0.0365
     20 C16        -4.4772    0.2175    5.1535 C.ar      1 <0>        -0.0956
     21 N4         -8.0783    1.0324    4.5016 N.pl3     1 <0>         0.0286
     22 O1         -8.7691    2.0064    4.3122 O.2       1 <0>        -0.1446
     23 O2         -8.5752   -0.0697    4.5052 O.3       1 <0>        -0.1443
     24 C17        -2.6085    2.8943    7.6071 C.3       1 <0>         0.2368
     25 H1         -3.6630    3.0404    7.3732 H         1 <0>         0.1068
     26 C18        -2.4789    1.9941    8.8374 C.3       1 <0>        -0.1597
     27 N5         -1.9852    4.1911    7.8830 N.am      1 <0>        -0.7174
     28 C19        -2.6887    5.1582    8.5046 C.2       1 <0>         0.5673
     29 O3         -3.8403    4.9544    8.8362 O.2       1 <0>        -0.5315
     30 C20        -2.0600    6.4663    8.7829 C.ar      1 <0>        -0.1408
     31 C21        -0.7290    6.6983    8.3917 C.ar      1 <0>        -0.0927
     32 C22        -0.1297    7.8912    8.6360 C.ar      1 <0>        -0.1062
     33 C23        -0.8402    8.9153    9.2889 C.ar      1 <0>        -0.0315
     34 C24        -0.2411   10.1584    9.5526 C.ar      1 <0>        -0.1133
     35 C25        -0.9538   11.1303   10.1857 C.ar      1 <0>        -0.1018
     36 C26        -2.2730   10.9127   10.5789 C.ar      1 <0>        -0.1177
     37 C27        -2.8869    9.7218   10.3407 C.ar      1 <0>        -0.0951
     38 C28        -2.1826    8.6938    9.6884 C.ar      1 <0>        -0.0652
     39 C29        -2.7876    7.4563    9.4218 C.ar      1 <0>        -0.0264
     40 H2          1.0042    1.8801    0.0026 H         1 <0>         0.0760
     41 H3         -0.5455    1.8639   -0.8728 H         1 <0>         0.0723
     42 H4         -0.5286    1.8543    0.9071 H         1 <0>         0.0705
     43 H5         -0.0064   -0.1437   -2.1314 H         1 <0>         0.1270
     44 H6          0.0266   -2.6056   -2.1449 H         1 <0>         0.1265
     45 H7          0.0540   -3.8484   -0.0191 H         1 <0>         0.1272
     46 H8          0.0491   -2.6290    2.1199 H         1 <0>         0.1270
     47 H9          0.5542   -0.5412    3.2558 H         1 <0>         0.1077
     48 H10         0.5249    1.0049    2.3743 H         1 <0>         0.1093
     49 H11        -4.2585    3.5855    4.9349 H         1 <0>         0.1551
     50 H12        -6.6756    3.3195    4.5551 H         1 <0>         0.1690
     51 H13        -6.2810   -0.9092    4.9493 H         1 <0>         0.1696
     52 H14        -3.8609   -0.6539    5.3185 H         1 <0>         0.1587
     53 H15        -1.4244    1.8480    9.0713 H         1 <0>         0.0744
     54 H16        -2.9775    2.4638    9.6854 H         1 <0>         0.0817
     55 H17        -2.9426    1.0293    8.6321 H         1 <0>         0.0689
     56 H18        -1.0663    4.3537    7.6183 H         1 <0>         0.4111
     57 H19        -0.1768    5.9170    7.8907 H         1 <0>         0.1263
     58 H20         0.8930    8.0544    8.3296 H         1 <0>         0.1346
     59 H21         0.7806   10.3420    9.2547 H         1 <0>         0.1310
     60 H22        -0.4896   12.0846   10.3866 H         1 <0>         0.1271
     61 H23        -2.8157   11.7004   11.0802 H         1 <0>         0.1277
     62 H24        -3.9096    9.5667   10.6512 H         1 <0>         0.1321
     63 H25        -3.8108    7.2757    9.7167 H         1 <0>         0.1436
@<TRIPOS>BOND
     1    1    2 1
     2    1   40 1
     3    1   41 1
     4    1   42 1
     5    2    7 ar
     6    2    3 ar
     7    3    4 ar
     8    3   43 1
     9    4    5 ar
    10    4   44 1
    11    5    6 ar
    12    5   45 1
    13    6    7 ar
    14    6   46 1
    15    7    8 1
    16    8    9 1
    17    8   47 1
    18    8   48 1
    19    9   10 1
    20   10   14 1
    21   10   11 2
    22   11   12 1
    23   12   13 2
    24   13   14 1
    25   13   24 1
    26   14   15 1
    27   15   20 ar
    28   15   16 ar
    29   16   17 ar
    30   16   49 1
    31   17   18 ar
    32   17   50 1
    33   18   19 ar
    34   18   21 1
    35   19   20 ar
    36   19   51 1
    37   20   52 1
    38   21   22 2
    39   21   23 1
    40   24   25 1
    41   24   26 1
    42   24   27 1
    43   26   53 1
    44   26   54 1
    45   26   55 1
    46   27   28 am
    47   27   56 1
    48   28   29 2
    49   28   30 1
    50   30   39 ar
    51   30   31 ar
    52   31   32 ar
    53   31   57 1
    54   32   33 ar
    55   32   58 1
    56   33   38 ar
    57   33   34 ar
    58   34   35 ar
    59   34   59 1
    60   35   36 ar
    61   35   60 1
    62   36   37 ar
    63   36   61 1
    64   37   38 ar
    65   37   62 1
    66   38   39 ar
    67   39   63 1
@<TRIPOS>MOLECULE
ZINC39873876
   59    63     0     0     0
SMALL
USER_CHARGES

@<TRIPOS>ATOM
      1 C1         -0.0187    1.5258    0.0104 C.3       1 <0>        -0.1525
      2 C2          0.0021   -0.0041    0.0020 C.3       1 <0>         0.0498
      3 O1          0.6709   -0.4649   -1.1737 O.3       1 <0>        -0.3020
      4 C3          0.7768   -1.8109   -1.3363 C.ar      1 <0>         0.1140
      5 C4          0.2435   -2.6690   -0.3879 C.ar      1 <0>        -0.1669
      6 C5          0.3516   -4.0370   -0.5549 C.ar      1 <0>        -0.0769
      7 C6          0.9916   -4.5523   -1.6668 C.ar      1 <0>        -0.1174
      8 C7          1.5263   -3.7019   -2.6164 C.ar      1 <0>        -0.1015
      9 C8          1.4160   -2.3297   -2.4582 C.ar      1 <0>         0.0907
     10 O2          1.9361   -1.4917   -3.3945 O.3       1 <0>        -0.4837
     11 C9         -0.2290   -4.9686    0.4775 C.3       1 <0>         0.2255
     12 H1         -0.9688   -4.4446    1.0827 H         1 <0>         0.1337
     13 C10         0.8555   -5.5139    1.3475 C.2       1 <0>        -0.2376
     14 C11         1.8136   -4.8435    2.2323 C.2       1 <0>         0.4604
     15 O3          1.7402   -3.6624    2.5224 O.2       1 <0>        -0.4225
     16 C12         2.8811   -5.7410    2.7417 C.ar      1 <0>        -0.2002
     17 C13         3.9755   -5.2165    3.4292 C.ar      1 <0>        -0.0210
     18 C14         4.9595   -6.0638    3.8904 C.ar      1 <0>        -0.0610
     19 C15         4.8594   -7.4317    3.6697 C.ar      1 <0>        -0.0436
     20 C16         3.7830   -7.9598    2.9940 C.ar      1 <0>        -0.1182
     21 C17         2.7727   -7.1235    2.5195 C.ar      1 <0>         0.1461
     22 O4          1.7211   -7.6702    1.8673 O.3       1 <0>        -0.1743
     23 C18         0.8593   -6.8730    1.2059 C.2       1 <0>         0.0948
     24 C19        -0.2002   -7.2409    0.2515 C.2       1 <0>         0.5723
     25 O5         -0.4588   -8.3756   -0.0977 O.2       1 <0>        -0.4556
     26 N1         -0.8435   -6.1344   -0.1786 N.am      1 <0>        -0.5336
     27 C20        -1.9013   -6.1007   -1.0837 C.ar      1 <0>         0.2108
     28 C21        -2.4682   -4.8816   -1.4441 C.ar      1 <0>        -0.1557
     29 C22        -3.5138   -4.8446   -2.3383 C.ar      1 <0>        -0.0205
     30 C23        -4.0065   -6.0334   -2.8849 C.ar      1 <0>        -0.1463
     31 C24        -3.4348   -7.2563   -2.5207 C.ar      1 <0>        -0.0272
     32 C25        -2.3857   -7.2856   -1.6303 C.ar      1 <0>        -0.1644
     33 C26        -5.1270   -5.9977   -3.8429 C.2       1 <0>         0.5112
     34 O6         -5.6231   -4.9343   -4.1581 O.2       1 <0>        -0.5043
     35 O7         -5.6007   -7.1444   -4.3687 O.3       1 <0>        -0.3488
     36 C27        -6.6874   -7.0353   -5.2901 C.3       1 <0>         0.0611
     37 C28        -7.0854   -8.4302   -5.7768 C.3       1 <0>        -0.1530
     38 Cl1         6.3256   -5.4212    4.7474 Cl        1 <0>        -0.0440
     39 H2          1.0039    1.9031    0.0027 H         1 <0>         0.0670
     40 H3         -0.5459    1.8868   -0.8726 H         1 <0>         0.0677
     41 H4         -0.5289    1.8773    0.9072 H         1 <0>         0.0805
     42 H5          0.5293   -0.3651    0.8851 H         1 <0>         0.0663
     43 H6         -1.0205   -0.3814    0.0098 H         1 <0>         0.0634
     44 H7         -0.2563   -2.2690    0.4819 H         1 <0>         0.1401
     45 H8          1.0743   -5.6217   -1.7935 H         1 <0>         0.1223
     46 H9          2.0261   -4.1070   -3.4839 H         1 <0>         0.1411
     47 H10         2.8557   -1.2414   -3.2309 H         1 <0>         0.3903
     48 H11         4.0514   -4.1526    3.5987 H         1 <0>         0.1573
     49 H12         5.6360   -8.0887    4.0326 H         1 <0>         0.1568
     50 H13         3.7204   -9.0256    2.8306 H         1 <0>         0.1600
     51 H14        -2.0874   -3.9636   -1.0213 H         1 <0>         0.1390
     52 H15        -3.9535   -3.8984   -2.6172 H         1 <0>         0.1462
     53 H16        -3.8130   -8.1764   -2.9410 H         1 <0>         0.1478
     54 H17        -1.9407   -8.2295   -1.3519 H         1 <0>         0.1624
     55 H18        -7.5380   -6.5669   -4.7950 H         1 <0>         0.0691
     56 H19        -6.3823   -6.4268   -6.1414 H         1 <0>         0.0692
     57 H20        -6.2349   -8.8986   -6.2720 H         1 <0>         0.0675
     58 H21        -7.3906   -9.0387   -4.9255 H         1 <0>         0.0675
     59 H22        -7.9144   -8.3470   -6.4797 H         1 <0>         0.0810
@<TRIPOS>BOND
     1    1    2 1
     2    1   39 1
     3    1   40 1
     4    1   41 1
     5    2    3 1
     6    2   42 1
     7    2   43 1
     8    3    4 1
     9    4    9 ar
    10    4    5 ar
    11    5    6 ar
    12    5   44 1
    13    6    7 ar
    14    6   11 1
    15    7    8 ar
    16    7   45 1
    17    8    9 ar
    18    8   46 1
    19    9   10 1
    20   10   47 1
    21   11   12 1
    22   11   26 1
    23   11   13 1
    24   13   23 2
    25   13   14 1
    26   14   15 2
    27   14   16 1
    28   16   21 ar
    29   16   17 ar
    30   17   18 ar
    31   17   48 1
    32   18   19 ar
    33   18   38 1
    34   19   20 ar
    35   19   49 1
    36   20   21 ar
    37   20   50 1
    38   21   22 1
    39   22   23 1
    40   23   24 1
    41   24   25 2
    42   24   26 am
    43   26   27 1
    44   27   32 ar
    45   27   28 ar
    46   28   29 ar
    47   28   51 1
    48   29   30 ar
    49   29   52 1
    50   30   31 ar
    51   30   33 1
    52   31   32 ar
    53   31   53 1
    54   32   54 1
    55   33   34 2
    56   33   35 1
    57   35   36 1
    58   36   37 1
    59   36   55 1
    60   36   56 1
    61   37   57 1
    62   37   58 1
    63   37   59 1
@<TRIPOS>MOLECULE
ZINC01880940
   65    69     0     0     0
SMALL
USER_CHARGES

@<TRIPOS>ATOM
      1 C1          0.7006    2.3999   -0.2185 C.3       1 <0>        -0.1220
      2 C2          0.6161    0.8956   -0.1871 C.ar      1 <0>        -0.0599
      3 C3          0.3913    0.1926   -1.3564 C.ar      1 <0>        -0.1055
      4 C4          0.3137   -1.1862   -1.3308 C.ar      1 <0>        -0.0923
      5 C5          0.4617   -1.8662   -0.1296 C.ar      1 <0>         0.0868
      6 C6          0.6873   -1.1577    1.0428 C.ar      1 <0>        -0.0892
      7 C7          0.7691    0.2208    1.0101 C.ar      1 <0>        -0.1068
      8 N1          0.3831   -3.2655   -0.1003 N.pl3     1 <0>        -0.4086
      9 C8         -0.6068   -4.0325    0.4744 C.2       1 <0>         0.2337
     10 N2         -0.2869   -5.2894    0.2702 N.2       1 <0>        -0.2598
     11 N3          0.8175   -5.3620   -0.3825 N.2       1 <0>        -0.2884
     12 C9          1.2701   -4.1555   -0.6417 C.2       1 <0>         0.1549
     13 S1          2.7457   -3.7585   -1.5191 S.3       1 <0>         0.1003
     14 C10         3.4442   -5.3744   -1.9567 C.3       1 <0>        -0.1485
     15 C11         4.7275   -5.1764   -2.7216 C.2       1 <0>         0.5551
     16 O1          5.1313   -4.0552   -2.9492 O.2       1 <0>        -0.4858
     17 N4          5.4267   -6.2449   -3.1529 N.am      1 <0>        -0.5792
     18 N5          6.6197   -6.0608   -3.8639 N.2       1 <0>        -0.2398
     19 C12         7.2928   -7.0894   -4.2791 C.2       1 <0>         0.1652
     20 C13         8.5491   -6.8955   -5.0279 C.2       1 <0>        -0.2085
     21 C14         9.1433   -5.6583   -5.3606 C.2       1 <0>         0.1283
     22 N6         10.2425   -5.8998   -6.0229 N.2       1 <0>        -0.2925
     23 N7         10.4028   -7.2848   -6.1443 N.pl3     1 <0>        -0.3143
     24 C15         9.3644   -7.8885   -5.5276 C.2       1 <0>         0.1308
     25 C16         9.1367   -9.3736   -5.4104 C.3       1 <0>        -0.1034
     26 C17        11.4628   -7.9343   -6.7912 C.ar      1 <0>         0.1437
     27 C18        11.2147   -9.0370   -7.5977 C.ar      1 <0>        -0.1241
     28 C19        12.2615   -9.6750   -8.2338 C.ar      1 <0>        -0.1006
     29 C20        13.5557   -9.2170   -8.0678 C.ar      1 <0>        -0.1147
     30 C21        13.8060   -8.1194   -7.2648 C.ar      1 <0>        -0.1015
     31 C22        12.7626   -7.4731   -6.6313 C.ar      1 <0>        -0.1034
     32 C23         8.6023   -4.2956   -5.0122 C.3       1 <0>        -0.0780
     33 C24        -1.8023   -3.5345    1.1866 C.ar      1 <0>        -0.0169
     34 C25        -2.2157   -2.2114    1.0217 C.ar      1 <0>        -0.0893
     35 C26        -3.3322   -1.7525    1.6890 C.ar      1 <0>        -0.1063
     36 C27        -4.0423   -2.6012    2.5215 C.ar      1 <0>        -0.0196
     37 C28        -3.6372   -3.9147    2.6891 C.ar      1 <0>        -0.1083
     38 C29        -2.5259   -4.3870    2.0223 C.ar      1 <0>        -0.0602
     39 Cl1        -5.4459   -2.0159    3.3589 Cl        1 <0>        -0.0600
     40 H1          1.7338    2.7022   -0.3896 H         1 <0>         0.0792
     41 H2          0.0722    2.7824   -1.0228 H         1 <0>         0.0728
     42 H3          0.3570    2.8031    0.7341 H         1 <0>         0.0725
     43 H4          0.2759    0.7222   -2.2905 H         1 <0>         0.1387
     44 H5          0.1378   -1.7347   -2.2444 H         1 <0>         0.1343
     45 H6          0.8029   -1.6840    1.9788 H         1 <0>         0.1315
     46 H7          0.9487    0.7723    1.9211 H         1 <0>         0.1378
     47 H8          3.6467   -5.9409   -1.0478 H         1 <0>         0.1310
     48 H9          2.7333   -5.9221   -2.5754 H         1 <0>         0.1311
     49 H10         5.1039   -7.1413   -2.9709 H         1 <0>         0.3878
     50 H11         6.9334   -8.0875   -4.0765 H         1 <0>         0.1206
     51 H12         8.4874   -9.7066   -6.2201 H         1 <0>         0.0910
     52 H13        10.0924   -9.8938   -5.4738 H         1 <0>         0.0813
     53 H14         8.6656   -9.5945   -4.4526 H         1 <0>         0.0916
     54 H15        10.2042   -9.3956   -7.7272 H         1 <0>         0.1316
     55 H16        12.0692  -10.5328   -8.8613 H         1 <0>         0.1350
     56 H17        14.3726   -9.7178   -8.5659 H         1 <0>         0.1316
     57 H18        14.8179   -7.7643   -7.1368 H         1 <0>         0.1344
     58 H19        12.9582   -6.6130   -6.0082 H         1 <0>         0.1337
     59 H20         8.9992   -3.9831   -4.0464 H         1 <0>         0.0807
     60 H21         8.9020   -3.5792   -5.7772 H         1 <0>         0.0710
     61 H22         7.5143   -4.3387   -4.9612 H         1 <0>         0.1011
     62 H23        -1.6623   -1.5484    0.3733 H         1 <0>         0.1365
     63 H24        -3.6530   -0.7291    1.5623 H         1 <0>         0.1407
     64 H25        -4.1950   -4.5720    3.3396 H         1 <0>         0.1440
     65 H26        -2.2137   -5.4130    2.1500 H         1 <0>         0.1472
@<TRIPOS>BOND
     1    1    2 1
     2    1   40 1
     3    1   41 1
     4    1   42 1
     5    2    7 ar
     6    2    3 ar
     7    3    4 ar
     8    3   43 1
     9    4    5 ar
    10    4   44 1
    11    5    6 ar
    12    5    8 1
    13    6    7 ar
    14    6   45 1
    15    7   46 1
    16    8   12 1
    17    8    9 1
    18    9   10 2
    19    9   33 1
    20   10   11 1
    21   11   12 2
    22   12   13 1
    23   13   14 1
    24   14   15 1
    25   14   47 1
    26   14   48 1
    27   15   16 2
    28   15   17 am
    29   17   18 1
    30   17   49 1
    31   18   19 2
    32   19   20 1
    33   19   50 1
    34   20   24 2
    35   20   21 1
    36   21   22 2
    37   21   32 1
    38   22   23 1
    39   23   24 1
    40   23   26 1
    41   24   25 1
    42   25   51 1
    43   25   52 1
    44   25   53 1
    45   26   31 ar
    46   26   27 ar
    47   27   28 ar
    48   27   54 1
    49   28   29 ar
    50   28   55 1
    51   29   30 ar
    52   29   56 1
    53   30   31 ar
    54   30   57 1
    55   31   58 1
    56   32   59 1
    57   32   60 1
    58   32   61 1
    59   33   38 ar
    60   33   34 ar
    61   34   35 ar
    62   34   62 1
    63   35   36 ar
    64   35   63 1
    65   36   37 ar
    66   36   39 1
    67   37   38 ar
    68   37   64 1
    69   38   65 1
@<TRIPOS>MOLECULE
ZINC06444258
   45    48     0     0     0
SMALL
USER_CHARGES
1-cyclopropyl-4-hydroxy-N-(3-methyl-2-pyridyl)-2-oxo-5,6,7,8-tetrahydroquinoline-3-carboxamide
@<TRIPOS>ATOM
      1 C1          2.5625    1.3796    3.9607 C.3       1 <0>        -0.1073
      2 C2          1.6416    1.2492    2.7750 C.ar      1 <0>        -0.1937
      3 C3          0.4362    0.5797    2.8935 C.ar      1 <0>        -0.0512
      4 C4         -0.3831    0.4882    1.7767 C.ar      1 <0>        -0.2298
      5 C5          0.0306    1.0535    0.5865 C.ar      1 <0>         0.1276
      6 N1          1.1853    1.6858    0.5033 N.ar      1 <0>        -0.4779
      7 C6          1.9916    1.7994    1.5472 C.ar      1 <0>         0.3885
      8 N2          3.2021    2.4760    1.4139 N.am      1 <0>        -0.6625
      9 C7          3.5477    3.0113    0.2263 C.2       1 <0>         0.6380
     10 O1          2.8435    2.8323   -0.7498 O.2       1 <0>        -0.4993
     11 C8          4.7727    3.8098    0.1105 C.2       1 <0>        -0.4919
     12 C9          6.0173    3.1932   -0.0633 C.2       1 <0>         0.3536
     13 C10         7.1769    3.9893   -0.1789 C.2       1 <0>        -0.2174
     14 C11         7.0766    5.3320   -0.1181 C.2       1 <0>         0.1559
     15 N3          5.8617    5.9302    0.0653 N.am      1 <0>        -0.5253
     16 C12         4.7266    5.2238    0.1774 C.2       1 <0>         0.5542
     17 O2          3.6617    5.7957    0.3356 O.2       1 <0>        -0.5986
     18 C13         5.7966    7.3917    0.1425 C.3       1 <0>        -0.0270
     19 C14         4.7237    8.0961   -0.6903 C.3       1 <0>        -0.1243
     20 C15         6.1938    8.1834   -1.1050 C.3       1 <0>        -0.1362
     21 C16         8.2708    6.2431   -0.2563 C.3       1 <0>        -0.0816
     22 C17         9.5679    5.4770   -0.0095 C.3       1 <0>        -0.1152
     23 C18         9.5588    4.2207   -0.8893 C.3       1 <0>        -0.1224
     24 C19         8.4899    3.2713   -0.3530 C.3       1 <0>        -0.0405
     25 O3          6.1073    1.8460   -0.1243 O.3       1 <0>        -0.6747
     26 H1          2.1111    0.8824    4.8320 H         1 <0>         0.0668
     27 H2          2.7202    2.4444    4.1871 H         1 <0>         0.0675
     28 H3          3.5283    0.9071    3.7285 H         1 <0>         0.0699
     29 H4          0.1377    0.1424    3.8348 H         1 <0>         0.1280
     30 H5         -1.3321   -0.0238    1.8368 H         1 <0>         0.1258
     31 H6         -0.6014    0.9807   -0.2862 H         1 <0>         0.1499
     32 H7          3.8758    2.5733    2.2780 H         1 <0>         0.4315
     33 H8          6.0961    7.3747    1.2008 H         1 <0>         0.1325
     34 H9          4.0040    7.3533   -1.0649 H         1 <0>         0.1273
     35 H10         4.1984    8.8324   -0.0644 H         1 <0>         0.1076
     36 H11         6.8838    8.9919   -0.8219 H         1 <0>         0.1055
     37 H12         6.6894    7.5129   -1.8225 H         1 <0>         0.1025
     38 H13         8.2952    6.6640   -1.2723 H         1 <0>         0.0796
     39 H14         8.1960    7.0595    0.4771 H         1 <0>         0.0768
     40 H15        10.4255    6.1145   -0.2704 H         1 <0>         0.0649
     41 H16         9.6306    5.1943    1.0517 H         1 <0>         0.0661
     42 H17         9.3286    4.5018   -1.9275 H         1 <0>         0.0611
     43 H18        10.5468    3.7387   -0.8505 H         1 <0>         0.0620
     44 H19         8.8223    2.8744    0.6176 H         1 <0>         0.0603
     45 H20         8.3628    2.4418   -1.0642 H         1 <0>         0.0736
@<TRIPOS>BOND
     1    1    2 1
     2    1   26 1
     3    1   27 1
     4    1   28 1
     5    2    7 ar
     6    2    3 ar
     7    3    4 ar
     8    3   29 1
     9    4    5 ar
    10    4   30 1
    11    5    6 ar
    12    5   31 1
    13    6    7 ar
    14    7    8 1
    15    8    9 am
    16    8   32 1
    17    9   10 2
    18    9   11 1
    19   11   16 1
    20   11   12 2
    21   12   13 1
    22   12   25 1
    23   13   24 1
    24   13   14 2
    25   14   15 1
    26   14   21 1
    27   15   16 am
    28   15   18 1
    29   16   17 2
    30   18   20 1
    31   18   19 1
    32   18   33 1
    33   19   20 1
    34   19   34 1
    35   19   35 1
    36   20   36 1
    37   20   37 1
    38   21   22 1
    39   21   38 1
    40   21   39 1
    41   22   23 1
    42   22   40 1
    43   22   41 1
    44   23   24 1
    45   23   42 1
    46   23   43 1
    47   24   44 1
    48   24   45 1
@<TRIPOS>MOLECULE
ZINC37655523
   37    38     0     0     0
SMALL
USER_CHARGES

@<TRIPOS>ATOM
      1 C1         -0.0188    1.5384    0.0105 C.3       1 <0>        -0.1223
      2 C2          1.4774    1.9387   -0.0016 C.3       1 <0>        -0.1246
      3 C3          2.1065    0.8811   -0.9423 C.3       1 <0>        -0.1265
      4 C4          1.3534   -0.4220   -0.6038 C.3       1 <0>         0.1461
      5 C5          0.0021   -0.0041    0.0020 C.3       1 <0>        -0.1475
      6 N1          1.1362   -1.2069   -1.8215 N.pl3     1 <0>        -1.1239
      7 S1          1.1842   -2.8611   -1.7601 S.o2      1 <0>         2.7809
      8 O1          0.9135   -3.3244   -3.0758 O.2       1 <0>        -0.9741
      9 O2          2.3712   -3.2072   -1.0597 O.2       1 <0>        -0.9861
     10 N2         -0.0835   -3.3529   -0.8149 N.pl3     1 <0>        -1.0009
     11 C6          0.0817   -3.5098    0.6366 C.3       1 <0>         0.1216
     12 C7         -0.3709   -4.9181    1.0349 C.3       1 <0>        -0.1330
     13 C8         -1.7988   -5.1509    0.5361 C.3       1 <0>        -0.0878
     14 C9         -1.8310   -5.0470   -0.9905 C.3       1 <0>        -0.1645
     15 H1         -1.1506   -5.7825   -1.4196 H         1 <0>         0.0664
     16 C10        -1.3965   -3.6348   -1.4110 C.3       1 <0>         0.1460
     17 C11        -3.2309   -5.3091   -1.4831 C.2       1 <0>         0.4982
     18 O3         -4.1209   -5.5562   -0.6873 O.co2     1 <0>        -0.6942
     19 O4         -3.4734   -5.2740   -2.6774 O.co2     1 <0>        -0.6974
     20 H2         -0.5054    1.9084    0.9130 H         1 <0>         0.0660
     21 H3         -0.5225    1.9180   -0.8785 H         1 <0>         0.0660
     22 H4          1.6056    2.9420   -0.4079 H         1 <0>         0.0676
     23 H5          1.9042    1.8684    0.9989 H         1 <0>         0.0692
     24 H6          1.9461    1.1545   -1.9852 H         1 <0>         0.0740
     25 H7          3.1710    0.7713   -0.7351 H         1 <0>         0.0721
     26 H8          1.9228   -1.0050    0.1201 H         1 <0>         0.0917
     27 H9         -0.0844   -0.3843    1.0199 H         1 <0>         0.0720
     28 H10        -0.8154   -0.3852   -0.6101 H         1 <0>         0.0785
     29 H11         0.9642   -0.7577   -2.6639 H         1 <0>         0.4142
     30 H12         1.1302   -3.3743    0.9018 H         1 <0>         0.0819
     31 H13        -0.5273   -2.7698    1.1558 H         1 <0>         0.0649
     32 H14         0.2957   -5.6549    0.5867 H         1 <0>         0.0612
     33 H15        -0.3443   -5.0154    2.1203 H         1 <0>         0.0669
     34 H16        -2.1323   -6.1433    0.8396 H         1 <0>         0.0623
     35 H17        -2.4606   -4.3987    0.9653 H         1 <0>         0.0605
     36 H18        -2.1236   -2.9047   -1.0554 H         1 <0>         0.0620
     37 H19        -1.3236   -3.5817   -2.4973 H         1 <0>         0.0927
@<TRIPOS>BOND
     1    1    5 1
     2    1    2 1
     3    1   20 1
     4    1   21 1
     5    2    3 1
     6    2   22 1
     7    2   23 1
     8    3    4 1
     9    3   24 1
    10    3   25 1
    11    4    5 1
    12    4    6 1
    13    4   26 1
    14    5   27 1
    15    5   28 1
    16    6    7 1
    17    6   29 1
    18    7    8 2
    19    7    9 2
    20    7   10 1
    21   10   16 1
    22   10   11 1
    23   11   12 1
    24   11   30 1
    25   11   31 1
    26   12   13 1
    27   12   32 1
    28   12   33 1
    29   13   14 1
    30   13   34 1
    31   13   35 1
    32   14   15 1
    33   14   16 1
    34   14   17 1
    35   16   36 1
    36   16   37 1
    37   17   18 2
    38   17   19 1
@<TRIPOS>MOLECULE
ZINC39994512
   29    30     0     0     0
SMALL
USER_CHARGES

@<TRIPOS>ATOM
      1 C1         -1.3133    1.3810    0.1012 C.3       1 <0>        -0.0324
      2 C2         -1.0546   -0.1034    0.0761 C.2       1 <0>        -0.0292
      3 N1         -1.0518   -0.9456   -0.9396 N.2       1 <0>        -0.2528
      4 N2         -0.8128   -2.1753   -0.7927 N.2       1 <0>        -0.3501
      5 C3         -0.5476   -2.6975    0.4046 C.2       1 <0>         0.3692
      6 S1         -0.6561   -1.2232    1.4151 S.3       1 <0>        -0.1431
      7 N3         -0.2703   -3.9798    0.7568 N.2       1 <0>        -0.6044
      8 C4         -0.2362   -4.9206   -0.1606 C.2       1 <0>         0.4645
      9 O1         -0.4772   -4.6118   -1.4551 O.3       1 <0>        -0.6280
     10 C5          0.0640   -6.3085    0.2206 C.2       1 <0>        -0.0219
     11 C6          0.0997   -7.2932   -0.7397 C.2       1 <0>         0.0014
     12 C7          0.2312   -8.6999   -0.3435 C.ar      1 <0>        -0.0568
     13 C8         -0.3587   -9.1552    0.8430 C.ar      1 <0>        -0.1067
     14 C9         -0.2319  -10.4776    1.2102 C.ar      1 <0>        -0.1015
     15 C10         0.4765  -11.3581    0.4117 C.ar      1 <0>        -0.1380
     16 C11         1.0655  -10.9180   -0.7668 C.ar      1 <0>         0.0994
     17 C12         0.9417   -9.5949   -1.1519 C.ar      1 <0>        -0.1186
     18 O2          1.7595  -11.7894   -1.5453 O.3       1 <0>        -0.4986
     19 C13         0.3191   -6.6354    1.5912 C.1       1 <0>         0.2751
     20 N4          0.5215   -6.8948    2.6785 N.1       1 <0>        -0.4298
     21 H1         -0.3745    1.9159   -0.0428 H         1 <0>         0.0722
     22 H2         -2.0066    1.6425   -0.6982 H         1 <0>         0.0813
     23 H3         -1.7457    1.6583    1.0625 H         1 <0>         0.0716
     24 H4          0.0310   -7.0308   -1.7850 H         1 <0>         0.1641
     25 H5         -0.9117   -8.4708    1.4692 H         1 <0>         0.1288
     26 H6         -0.6868  -10.8279    2.1250 H         1 <0>         0.1292
     27 H7          0.5721  -12.3928    0.7064 H         1 <0>         0.1282
     28 H8          1.3953   -9.2529   -2.0704 H         1 <0>         0.1379
     29 H9          1.2206  -12.2357   -2.2129 H         1 <0>         0.3892
@<TRIPOS>BOND
     1    1    2 1
     2    1   21 1
     3    1   22 1
     4    1   23 1
     5    2    6 1
     6    2    3 2
     7    3    4 1
     8    4    5 2
     9    5    6 1
    10    5    7 1
    11    7    8 2
    12    8    9 1
    13    8   10 1
    14   10   11 2
    15   10   19 1
    16   11   12 1
    17   11   24 1
    18   12   17 ar
    19   12   13 ar
    20   13   14 ar
    21   13   25 1
    22   14   15 ar
    23   14   26 1
    24   15   16 ar
    25   15   27 1
    26   16   17 ar
    27   16   18 1
    28   17   28 1
    29   18   29 1
    30   19   20 3
@<TRIPOS>MOLECULE
ZINC44731657
   42    43     0     0     0
SMALL
USER_CHARGES

@<TRIPOS>ATOM
      1 C1         -0.0077    1.5003    0.0342 C.3       1 <0>        -0.0728
      2 C2          0.0100   -0.0065    0.0200 C.2       1 <0>        -0.0150
      3 C3         -1.0718   -0.8059    0.0168 C.2       1 <0>        -0.2010
      4 C4         -0.5970   -2.1376    0.0025 C.2       1 <0>        -0.1785
      5 C5          0.7465   -2.0723   -0.0023 C.2       1 <0>        -0.0053
      6 O1          1.1086   -0.7790    0.0025 O.3       1 <0>        -0.1733
      7 C6          1.6861   -3.2504   -0.0163 C.3       1 <0>        -0.0760
      8 C7         -1.4353   -3.3899   -0.0055 C.3       1 <0>         0.2345
      9 H1         -0.9806   -4.1356    0.6466 H         1 <0>         0.0933
     10 C8         -1.5165   -3.9402   -1.4307 C.3       1 <0>        -0.1576
     11 N1         -2.7836   -3.0780    0.4752 N.am      1 <0>        -0.7440
     12 C9         -3.5417   -4.0445    1.0297 C.2       1 <0>         0.7068
     13 O2         -3.1436   -5.1932    1.0495 O.2       1 <0>        -0.5894
     14 N2         -4.7412   -3.7378    1.5624 N.am      1 <0>        -0.6229
     15 C10        -5.2895   -2.3802    1.4400 C.3       1 <0>         0.1157
     16 C11        -6.6946   -2.4686    0.8361 C.3       1 <0>        -0.1345
     17 C12        -7.5491   -3.4179    1.6791 C.3       1 <0>        -0.0946
     18 C13        -6.9277   -4.8164    1.6632 C.3       1 <0>        -0.1666
     19 H2         -6.8599   -5.1727    0.6353 H         1 <0>         0.0627
     20 C14        -5.5280   -4.7562    2.2712 C.3       1 <0>         0.1510
     21 C15        -7.7876   -5.7581    2.4663 C.2       1 <0>         0.5005
     22 O3         -7.9789   -6.8956    2.0716 O.co2     1 <0>        -0.6968
     23 O4         -8.2919   -5.3823    3.5108 O.co2     1 <0>        -0.6950
     24 H3          1.0156    1.8757    0.0286 H         1 <0>         0.0741
     25 H4         -0.5337    1.8658   -0.8477 H         1 <0>         0.0845
     26 H5         -0.5177    1.8492    0.9321 H         1 <0>         0.0851
     27 H6         -2.1048   -0.4910    0.0245 H         1 <0>         0.1444
     28 H7          1.9086   -3.5255   -1.0474 H         1 <0>         0.0822
     29 H8          2.6105   -2.9841    0.4962 H         1 <0>         0.0760
     30 H9          1.2189   -4.0939    0.4920 H         1 <0>         0.0913
     31 H10        -1.9712   -3.1945   -2.0828 H         1 <0>         0.0549
     32 H11        -0.5133   -4.1723   -1.7883 H         1 <0>         0.0621
     33 H12        -2.1229   -4.8460   -1.4365 H         1 <0>         0.0694
     34 H13        -3.1308   -2.1759    0.3942 H         1 <0>         0.3923
     35 H14        -5.3438   -1.9178    2.4255 H         1 <0>         0.0680
     36 H15        -4.6490   -1.7847    0.7894 H         1 <0>         0.0654
     37 H16        -7.1504   -1.4785    0.8287 H         1 <0>         0.0680
     38 H17        -6.6290   -2.8470   -0.1840 H         1 <0>         0.0609
     39 H18        -7.5938   -3.0521    2.7049 H         1 <0>         0.0687
     40 H19        -8.5566   -3.4635    1.2658 H         1 <0>         0.0565
     41 H20        -5.0447   -5.7279    2.1690 H         1 <0>         0.0891
     42 H21        -5.6021   -4.4919    3.3261 H         1 <0>         0.0657
@<TRIPOS>BOND
     1    1    2 1
     2    1   24 1
     3    1   25 1
     4    1   26 1
     5    2    6 1
     6    2    3 2
     7    3    4 1
     8    3   27 1
     9    4    5 2
    10    4    8 1
    11    5    6 1
    12    5    7 1
    13    7   28 1
    14    7   29 1
    15    7   30 1
    16    8    9 1
    17    8   10 1
    18    8   11 1
    19   10   31 1
    20   10   32 1
    21   10   33 1
    22   11   12 am
    23   11   34 1
    24   12   13 2
    25   12   14 am
    26   14   20 1
    27   14   15 1
    28   15   16 1
    29   15   35 1
    30   15   36 1
    31   16   17 1
    32   16   37 1
    33   16   38 1
    34   17   18 1
    35   17   39 1
    36   17   40 1
    37   18   19 1
    38   18   20 1
    39   18   21 1
    40   20   41 1
    41   20   42 1
    42   21   22 2
    43   21   23 1
@<TRIPOS>MOLECULE
ZINC55151422
   39    42     0     0     0
SMALL
USER_CHARGES

@<TRIPOS>ATOM
      1 C1          0.6715    0.4584    0.7986 C.ar      1 <0>        -0.1028
      2 C2          1.7610    1.3075    0.7531 C.ar      1 <0>        -0.1341
      3 C3          2.9336    0.8998    0.1333 C.ar      1 <0>         0.1858
      4 C4          3.0120   -0.3661   -0.4421 C.ar      1 <0>         0.0265
      5 C5          1.9159   -1.2155   -0.3915 C.ar      1 <0>         0.0582
      6 C6          0.7462   -0.7984    0.2292 C.ar      1 <0>        -0.1441
      7 O1          1.9732   -2.4599   -0.9404 O.3       1 <0>        -0.3110
      8 C7          3.0289   -2.7030   -1.8764 C.3       1 <0>         0.0208
      9 C8          4.3338   -2.1563   -1.2816 C.3       1 <0>         0.0224
     10 O2          4.1672   -0.7531   -1.0506 O.3       1 <0>        -0.2815
     11 N1          4.0379    1.7613    0.0860 N.am      1 <0>        -0.6541
     12 C9          3.8513    3.0960    0.0752 C.2       1 <0>         0.5473
     13 O3          2.7386    3.5541    0.2276 O.2       1 <0>        -0.5109
     14 C10         5.0252    4.0193   -0.1263 C.3       1 <0>        -0.0948
     15 H1          5.8127    3.7990    0.5945 H         1 <0>         0.0822
     16 C11         4.5767    5.5110   -0.0108 C.3       1 <0>        -0.0500
     17 H2          4.4289    5.8939    0.9990 H         1 <0>         0.0903
     18 C12         5.6901    6.2098   -0.8740 C.3       1 <0>        -0.1218
     19 C13         5.3697    5.3484   -2.1501 C.3       1 <0>        -0.0623
     20 H3          5.9211    5.5951   -3.0574 H         1 <0>         0.0882
     21 C14         5.5646    3.9062   -1.5732 C.3       1 <0>        -0.1532
     22 H4          6.6197    3.6326   -1.5686 H         1 <0>         0.0684
     23 C15         4.7598    2.9056   -2.3619 C.2       1 <0>         0.4939
     24 O4          3.5944    3.1390   -2.6337 O.co2     1 <0>        -0.6641
     25 O5          5.2741    1.8626   -2.7283 O.co2     1 <0>        -0.6907
     26 C16         3.8476    5.5261   -2.2096 C.2       1 <0>        -0.1061
     27 C17         3.3766    5.6142   -0.9600 C.2       1 <0>        -0.1734
     28 H5         -0.2392    0.7763    1.2845 H         1 <0>         0.1288
     29 H6          1.6995    2.2889    1.1997 H         1 <0>         0.1553
     30 H7         -0.1080   -1.4582    0.2670 H         1 <0>         0.1269
     31 H8          3.1253   -3.7745   -2.0516 H         1 <0>         0.1157
     32 H9          2.8117   -2.1944   -2.8157 H         1 <0>         0.0777
     33 H10         4.5483   -2.6611   -0.3396 H         1 <0>         0.0689
     34 H11         5.1534   -2.3190   -1.9815 H         1 <0>         0.1178
     35 H12         4.9365    1.3969    0.0610 H         1 <0>         0.4105
     36 H13         5.4951    7.2712   -1.0269 H         1 <0>         0.0709
     37 H14         6.6932    6.0276   -0.4883 H         1 <0>         0.0662
     38 H15         3.2513    5.5674   -3.1091 H         1 <0>         0.1129
     39 H16         2.3464    5.7455   -0.6635 H         1 <0>         0.1197
@<TRIPOS>BOND
     1    1    6 ar
     2    1    2 ar
     3    1   28 1
     4    2    3 ar
     5    2   29 1
     6    3    4 ar
     7    3   11 1
     8    4   10 1
     9    4    5 ar
    10    5    6 ar
    11    5    7 1
    12    6   30 1
    13    7    8 1
    14    8    9 1
    15    8   31 1
    16    8   32 1
    17    9   10 1
    18    9   33 1
    19    9   34 1
    20   11   12 am
    21   11   35 1
    22   12   13 2
    23   12   14 1
    24   14   15 1
    25   14   21 1
    26   14   16 1
    27   16   17 1
    28   16   27 1
    29   16   18 1
    30   18   19 1
    31   18   36 1
    32   18   37 1
    33   19   20 1
    34   19   21 1
    35   19   26 1
    36   21   22 1
    37   21   23 1
    38   23   24 2
    39   23   25 1
    40   26   27 2
    41   26   38 1
    42   27   39 1
@<TRIPOS>MOLECULE
ZINC05557325
   43    44     0     0     0
SMALL
USER_CHARGES
2-[(1-ethyl-3,5-dimethyl-pyrazol-4-yl)carbamoyl]cyclohexane-1-carboxylic acid
@<TRIPOS>ATOM
      1 C1          1.2414   -3.7094   -1.8693 C.3       1 <0>        -0.1733
      2 C2          1.4769   -3.3076   -0.4119 C.3       1 <0>         0.1364
      3 N1          0.6690   -2.1275   -0.0941 N.pl3     1 <0>        -0.3739
      4 C3          1.0531   -0.8330   -0.2398 C.2       1 <0>         0.0938
      5 C4          0.0210   -0.0511    0.1680 C.2       1 <0>         0.0020
      6 C5         -1.0266   -0.8949    0.5650 C.2       1 <0>         0.0845
      7 N2         -0.6385   -2.1345    0.4081 N.2       1 <0>        -0.2979
      8 C6         -2.3698   -0.4499    1.0833 C.3       1 <0>        -0.0679
      9 N3          0.0032    1.3564    0.1838 N.am      1 <0>        -0.6682
     10 C7         -0.5399    2.0350   -0.8462 C.2       1 <0>         0.5388
     11 O1         -1.0525    1.4331   -1.7662 O.2       1 <0>        -0.4923
     12 C8         -0.5102    3.5417   -0.8551 C.3       1 <0>        -0.0829
     13 H1          0.5240    3.8849   -0.8297 H         1 <0>         0.0905
     14 C9         -1.2544    4.0737    0.3713 C.3       1 <0>        -0.1107
     15 C10        -2.7061    3.5920    0.3357 C.3       1 <0>        -0.1196
     16 C11        -3.3836    4.1079   -0.9354 C.3       1 <0>        -0.1177
     17 C12        -2.6394    3.5759   -2.1619 C.3       1 <0>        -0.1098
     18 C13        -1.1877    4.0577   -2.1262 C.3       1 <0>        -0.1089
     19 H2         -1.1662    5.1474   -2.1326 H         1 <0>         0.0685
     20 C14        -0.4547    3.5337   -3.3342 C.2       1 <0>         0.4776
     21 O2          0.5105    2.8207   -3.1930 O.co2     1 <0>        -0.6353
     22 C15         2.3846   -0.3520   -0.7564 C.3       1 <0>        -0.0913
     23 H3          1.5275   -2.8862   -2.5240 H         1 <0>         0.0644
     24 H4          1.8425   -4.5874   -2.1058 H         1 <0>         0.0744
     25 H5          0.1865   -3.9409   -2.0164 H         1 <0>         0.0653
     26 H6          2.5318   -3.0761   -0.2648 H         1 <0>         0.0899
     27 H7          1.1908   -4.1308    0.2427 H         1 <0>         0.0923
     28 H8         -3.1009   -0.4855    0.2756 H         1 <0>         0.0758
     29 H9         -2.6860   -1.1124    1.8890 H         1 <0>         0.0687
     30 H10        -2.2941    0.5701    1.4601 H         1 <0>         0.0742
     31 H11         0.3853    1.8379    0.9342 H         1 <0>         0.3948
     32 H12        -0.7717    3.7061    1.2769 H         1 <0>         0.0591
     33 H13        -1.2329    5.1635    0.3649 H         1 <0>         0.0690
     34 H14        -3.2362    3.9709    1.2094 H         1 <0>         0.0565
     35 H15        -2.7276    2.5022    0.3421 H         1 <0>         0.0601
     36 H16        -3.3621    5.1977   -0.9419 H         1 <0>         0.0550
     37 H17        -4.4178    3.7647   -0.9609 H         1 <0>         0.0537
     38 H18        -3.1221    3.9435   -3.0674 H         1 <0>         0.0622
     39 H19        -2.6609    2.4862   -2.1555 H         1 <0>         0.0827
     40 H20         3.0793   -0.2420    0.0763 H         1 <0>         0.0755
     41 H21         2.7816   -1.0764   -1.4675 H         1 <0>         0.0685
     42 H22         2.2560    0.6104   -1.2518 H         1 <0>         0.0949
     43 O3         -0.8741    3.8590   -4.5671 O.co2     1 <0>        -0.7792
@<TRIPOS>BOND
     1    1    2 1
     2    1   23 1
     3    1   24 1
     4    1   25 1
     5    2    3 1
     6    2   26 1
     7    2   27 1
     8    3    7 1
     9    3    4 1
    10    4    5 2
    11    4   22 1
    12    5    6 1
    13    5    9 1
    14    6    7 2
    15    6    8 1
    16    8   28 1
    17    8   29 1
    18    8   30 1
    19    9   10 am
    20    9   31 1
    21   10   11 2
    22   10   12 1
    23   12   13 1
    24   12   18 1
    25   12   14 1
    26   14   15 1
    27   14   32 1
    28   14   33 1
    29   15   16 1
    30   15   34 1
    31   15   35 1
    32   16   17 1
    33   16   36 1
    34   16   37 1
    35   17   18 1
    36   17   38 1
    37   17   39 1
    38   18   19 1
    39   18   20 1
    40   20   21 2
    41   20   43 1
    42   22   40 1
    43   22   41 1
    44   22   42 1
@<TRIPOS>MOLECULE
ZINC36331319
   40    41     0     0     0
SMALL
USER_CHARGES

@<TRIPOS>ATOM
      1 C1          2.4217    2.7405    1.3921 C.3       1 <0>        -0.1126
      2 C2          3.4148    1.6078    1.6594 C.3       1 <0>        -0.1199
      3 C3          2.7784    0.5828    2.6003 C.3       1 <0>        -0.0974
      4 C4          1.5153    0.0115    1.9528 C.3       1 <0>        -0.1382
      5 H1          1.7765   -0.4723    1.0116 H         1 <0>         0.0702
      6 C5          0.5221    1.1442    1.6855 C.3       1 <0>        -0.0805
      7 H2          0.2610    1.6280    2.6267 H         1 <0>         0.0899
      8 C6          1.1586    2.1691    0.7446 C.3       1 <0>        -0.1059
      9 C7         -0.7219    0.5814    1.0478 C.2       1 <0>         0.5280
     10 O1         -0.6393   -0.3507    0.2763 O.2       1 <0>        -0.5234
     11 N1         -1.9263    1.1140    1.3348 N.am      1 <0>        -0.7297
     12 C8         -3.1356    0.5669    0.7148 C.3       1 <0>         0.1255
     13 C9         -3.3188    1.1905   -0.6657 C.3       1 <0>        -0.1221
     14 C10        -4.4115    0.4442   -1.4354 C.3       1 <0>        -0.5959
     15 S1         -5.9887    0.6383   -0.5539 S.o2      1 <0>         2.4130
     16 O2         -6.9297   -0.2727   -1.1053 O.2       1 <0>        -0.9461
     17 O3         -6.3109    2.0213   -0.5032 O.2       1 <0>        -0.9388
     18 C11        -5.5574    0.0803    1.1210 C.3       1 <0>        -0.5968
     19 C12        -4.3371    0.8671    1.6062 C.3       1 <0>        -0.1210
     20 C13         0.8884   -0.9981    2.8796 C.2       1 <0>         0.4977
     21 O4          0.4541   -0.6443    3.9624 O.co2     1 <0>        -0.7038
     22 O5          0.8156   -2.1686    2.5464 O.co2     1 <0>        -0.6919
     23 H3          2.1605    3.2243    2.3333 H         1 <0>         0.0624
     24 H4          2.8751    3.4707    0.7218 H         1 <0>         0.0583
     25 H5          3.6760    1.1239    0.7182 H         1 <0>         0.0581
     26 H6          4.3147    2.0148    2.1206 H         1 <0>         0.0560
     27 H7          3.4859   -0.2241    2.7907 H         1 <0>         0.0567
     28 H8          2.5172    1.0666    3.5414 H         1 <0>         0.0639
     29 H9          0.4511    2.9761    0.5542 H         1 <0>         0.0586
     30 H10         1.4198    1.6853   -0.1965 H         1 <0>         0.0653
     31 H11        -1.9923    1.8595    1.9518 H         1 <0>         0.4007
     32 H12        -3.0279   -0.5126    0.6091 H         1 <0>         0.0982
     33 H13        -3.6041    2.2366   -0.5552 H         1 <0>         0.0853
     34 H14        -2.3810    1.1291   -1.2178 H         1 <0>         0.0943
     35 H15        -4.5004    0.8605   -2.4389 H         1 <0>         0.1365
     36 H16        -4.1562   -0.6136   -1.4984 H         1 <0>         0.1374
     37 H17        -6.3972    0.2582    1.7927 H         1 <0>         0.1394
     38 H18        -5.3218   -0.9837    1.1020 H         1 <0>         0.1383
     39 H19        -4.1068    0.5811    2.6325 H         1 <0>         0.1002
     40 H20        -4.5568    1.9342    1.5701 H         1 <0>         0.0901
@<TRIPOS>BOND
     1    1    8 1
     2    1    2 1
     3    1   23 1
     4    1   24 1
     5    2    3 1
     6    2   25 1
     7    2   26 1
     8    3    4 1
     9    3   27 1
    10    3   28 1
    11    4    5 1
    12    4    6 1
    13    4   20 1
    14    6    7 1
    15    6    8 1
    16    6    9 1
    17    8   29 1
    18    8   30 1
    19    9   10 2
    20    9   11 am
    21   11   12 1
    22   11   31 1
    23   12   19 1
    24   12   13 1
    25   12   32 1
    26   13   14 1
    27   13   33 1
    28   13   34 1
    29   14   15 1
    30   14   35 1
    31   14   36 1
    32   15   16 2
    33   15   17 2
    34   15   18 1
    35   18   19 1
    36   18   37 1
    37   18   38 1
    38   19   39 1
    39   19   40 1
    40   20   21 2
    41   20   22 1
@<TRIPOS>MOLECULE
ZINC44342817
   26    27     0     0     0
SMALL
USER_CHARGES

@<TRIPOS>ATOM
      1 C1         -0.0187    1.5258    0.0104 C.3       1 <0>        -0.1486
      2 C2          0.0021   -0.0041    0.0020 C.3       1 <0>         0.2589
      3 H1          0.5293   -0.3651    0.8851 H         1 <0>         0.0957
      4 C3         -1.4117   -0.5257    0.0127 C.2       1 <0>         0.0402
      5 N1         -2.0479   -1.0630    1.0435 N.2       1 <0>        -0.3754
      6 N2         -3.2332   -1.3803    0.6475 N.2       1 <0>        -0.1923
      7 N3         -3.3605   -1.0608   -0.5932 N.2       1 <0>        -0.1926
      8 N4         -2.2600   -0.5301   -1.0053 N.2       1 <0>        -0.3819
      9 N5          0.6878   -0.4765   -1.2033 N.am      1 <0>        -0.7017
     10 C4          2.0310   -0.5870   -1.2149 C.2       1 <0>         0.5531
     11 O1          2.6734   -0.2946   -0.2253 O.2       1 <0>        -0.5411
     12 C5          2.7228   -1.0636   -2.4310 C.ar      1 <0>        -0.1099
     13 C6          1.9881   -1.3948   -3.5710 C.ar      1 <0>        -0.0789
     14 C7          2.6393   -1.8390   -4.7025 C.ar      1 <0>        -0.0970
     15 C8          4.0190   -1.9569   -4.7095 C.ar      1 <0>        -0.0727
     16 C9          4.7533   -1.6299   -3.5818 C.ar      1 <0>        -0.1007
     17 C10         4.1140   -1.1791   -2.4461 C.ar      1 <0>        -0.0562
     18 Br1         4.9041   -2.5673   -6.2651 Br        1 <0>        -0.0505
     19 H2          1.0039    1.9031    0.0027 H         1 <0>         0.0580
     20 H3         -0.5459    1.8868   -0.8726 H         1 <0>         0.0591
     21 H4         -0.5289    1.8773    0.9072 H         1 <0>         0.0646
     22 H5          0.1751   -0.7099   -1.9930 H         1 <0>         0.4056
     23 H6          0.9120   -1.3036   -3.5666 H         1 <0>         0.1402
     24 H7          2.0721   -2.0958   -5.5849 H         1 <0>         0.1393
     25 H8          5.8291   -1.7243   -3.5932 H         1 <0>         0.1385
     26 H9          4.6880   -0.9202   -1.5687 H         1 <0>         0.1463
@<TRIPOS>BOND
     1    1    2 1
     2    1   19 1
     3    1   20 1
     4    1   21 1
     5    2    3 1
     6    2    4 1
     7    2    9 1
     8    4    5 1
     9    4    8 2
    10    5    6 1
    11    6    7 2
    12    7    8 1
    13    9   10 am
    14    9   22 1
    15   10   11 2
    16   10   12 1
    17   12   17 ar
    18   12   13 ar
    19   13   14 ar
    20   13   23 1
    21   14   15 ar
    22   14   24 1
    23   15   16 ar
    24   15   18 1
    25   16   17 ar
    26   16   25 1
    27   17   26 1
@<TRIPOS>MOLECULE
ZINC50711912
   27    28     0     0     0
SMALL
USER_CHARGES

@<TRIPOS>ATOM
      1 C1         -0.0187    1.5258    0.0104 C.3       1 <0>        -0.1616
      2 C2          0.0021   -0.0041    0.0020 C.3       1 <0>         0.1208
      3 N1          0.6878   -0.4765   -1.2033 N.pl3     1 <0>        -0.7274
      4 C3          0.8312   -1.8404   -1.4320 C.ar      1 <0>         0.4074
      5 C4          0.3163   -2.7486   -0.5151 C.ar      1 <0>        -0.1865
      6 C5          0.4685   -4.1160   -0.7591 C.ar      1 <0>         0.0396
      7 C6          1.1381   -4.5106   -1.9254 C.ar      1 <0>        -0.1630
      8 C7          1.6192   -3.5433   -2.7841 C.ar      1 <0>         0.2077
      9 N2          1.4523   -2.2593   -2.5238 N.ar      1 <0>        -0.5413
     10 Cl1         2.4506   -4.0214   -4.2311 Cl        1 <0>        -0.0432
     11 C8         -0.0620   -5.1193    0.1875 C.2       1 <0>         0.4548
     12 O1         -0.7047   -4.7186    1.3075 O.3       1 <0>        -0.6339
     13 N3          0.0906   -6.3975   -0.0586 N.2       1 <0>        -0.6011
     14 C9         -0.3974   -7.3205    0.8122 C.2       1 <0>         0.3325
     15 N4         -1.0585   -7.1515    1.9564 N.2       1 <0>        -0.3299
     16 N5         -1.4171   -8.1751    2.6050 N.2       1 <0>        -0.2757
     17 C10        -1.1599   -9.3932    2.1888 C.2       1 <0>        -0.1093
     18 S1         -0.3412   -9.1058    0.7435 S.3       1 <0>        -0.0309
     19 H1          1.0039    1.9031    0.0027 H         1 <0>         0.0609
     20 H2         -0.5459    1.8868   -0.8726 H         1 <0>         0.0609
     21 H3         -0.5289    1.8773    0.9072 H         1 <0>         0.0744
     22 H4          0.5293   -0.3651    0.8851 H         1 <0>         0.0658
     23 H5         -1.0205   -0.3814    0.0098 H         1 <0>         0.0658
     24 H6          1.0417    0.1622   -1.8418 H         1 <0>         0.4025
     25 H7         -0.1932   -2.4031    0.3723 H         1 <0>         0.1477
     26 H8          1.2760   -5.5581   -2.1490 H         1 <0>         0.1556
     27 H9         -1.4122  -10.3363    2.6507 H         1 <0>         0.2072
@<TRIPOS>BOND
     1    1    2 1
     2    1   19 1
     3    1   20 1
     4    1   21 1
     5    2    3 1
     6    2   22 1
     7    2   23 1
     8    3    4 1
     9    3   24 1
    10    4    9 ar
    11    4    5 ar
    12    5    6 ar
    13    5   25 1
    14    6    7 ar
    15    6   11 1
    16    7    8 ar
    17    7   26 1
    18    8    9 ar
    19    8   10 1
    20   11   12 1
    21   11   13 2
    22   13   14 1
    23   14   18 1
    24   14   15 2
    25   15   16 1
    26   16   17 2
    27   17   18 1
    28   17   27 1
@<TRIPOS>MOLECULE
ZINC62338895
   31    32     0     0     0
SMALL
USER_CHARGES

@<TRIPOS>ATOM
      1 C1         -0.0184    1.5028    0.0103 C.3       1 <0>        -0.0976
      2 C2          0.0021   -0.0041    0.0020 C.ar      1 <0>        -0.1753
      3 C3          0.0057   -0.6888   -1.1996 C.ar      1 <0>        -0.0553
      4 C4          0.0231   -2.0694   -1.2151 C.ar      1 <0>        -0.1566
      5 C5          0.0375   -2.7760   -0.0184 C.ar      1 <0>         0.2692
      6 C6          0.0361   -2.0793    1.1849 C.ar      1 <0>        -0.7621
      7 C7          0.0229   -0.7024    1.1970 C.ar      1 <0>         0.0066
      8 S1          0.0620   -2.9966    2.6913 S.o2      1 <0>         2.6336
      9 O1          1.1369   -2.4829    3.4659 O.2       1 <0>        -0.9959
     10 O2         -1.2753   -3.0368    3.1702 O.2       1 <0>        -1.0008
     11 N1          0.4723   -4.5475    2.2722 N.2       1 <0>        -1.0377
     12 C8          0.4281   -4.9365    1.0384 C.2       1 <0>         0.4491
     13 N2          0.0506   -4.1682   -0.0208 N.2       1 <0>        -0.6879
     14 S2          0.8960   -6.6014    0.7007 S.3       1 <0>         0.0253
     15 C9          1.3206   -7.2770    2.3298 C.3       1 <0>        -0.1442
     16 C10         1.7440   -8.7157    2.1822 C.2       1 <0>         0.5330
     17 O3          1.7580   -9.2343    1.0859 O.2       1 <0>        -0.5234
     18 N3          2.1072   -9.4261    3.2684 N.am      1 <0>        -0.7352
     19 C11         2.5188  -10.8248    3.1249 C.3       1 <0>         0.0899
     20 H1          1.0042    1.8801    0.0026 H         1 <0>         0.0587
     21 H2         -0.5455    1.8639   -0.8728 H         1 <0>         0.0579
     22 H3         -0.5286    1.8543    0.9071 H         1 <0>         0.0575
     23 H4         -0.0054   -0.1411   -2.1303 H         1 <0>         0.1163
     24 H5          0.0250   -2.5995   -2.1560 H         1 <0>         0.1237
     25 H6          0.0244   -0.1689    2.1361 H         1 <0>         0.1120
     26 H7          2.1388   -6.6998    2.7605 H         1 <0>         0.1212
     27 H8          0.4512   -7.2195    2.9848 H         1 <0>         0.1206
     28 H9          2.0960   -9.0114    4.1452 H         1 <0>         0.4048
     29 H10         1.7006  -11.4019    2.6942 H         1 <0>         0.0594
     30 H11         3.3882  -10.8822    2.4699 H         1 <0>         0.0593
     31 H12         2.7740  -11.2307    4.1038 H         1 <0>         0.0741
@<TRIPOS>BOND
     1    1    2 1
     2    1   20 1
     3    1   21 1
     4    1   22 1
     5    2    7 ar
     6    2    3 ar
     7    3    4 ar
     8    3   23 1
     9    4    5 ar
    10    4   24 1
    11    5   13 1
    12    5    6 ar
    13    6    7 ar
    14    6    8 1
    15    7   25 1
    16    8    9 2
    17    8   10 2
    18    8   11 1
    19   11   12 2
    20   12   13 1
    21   12   14 1
    22   14   15 1
    23   15   16 1
    24   15   26 1
    25   15   27 1
    26   16   17 2
    27   16   18 am
    28   18   19 1
    29   18   28 1
    30   19   29 1
    31   19   30 1
    32   19   31 1
@<TRIPOS>MOLECULE
ZINC67155332
   26    28     0     0     0
SMALL
USER_CHARGES

@<TRIPOS>ATOM
      1 C1         -0.0163    1.3500    0.0095 C.2       1 <0>        -0.1697
      2 C2          1.1778    2.0352    0.0017 C.2       1 <0>        -0.1029
      3 C3          2.3205    1.2517   -0.0134 C.2       1 <0>        -0.1121
      4 S1          1.6359   -0.3943   -0.0157 S.3       1 <0>         0.2141
      5 C4          0.0021   -0.0041    0.0020 C.2       1 <0>        -0.2466
      6 C5          3.7277    1.6683   -0.0250 C.2       1 <0>         0.1356
      7 N1          4.2424    2.8986   -0.0179 N.2       1 <0>        -0.4885
      8 C6          5.5279    3.1001   -0.0304 C.2       1 <0>         0.0720
      9 C7          6.3869    2.0020   -0.0517 C.2       1 <0>        -0.1223
     10 S2          5.2041    0.6602   -0.0445 S.3       1 <0>         0.1003
     11 C8          7.8004    1.9606   -0.0682 C.2       1 <0>         0.5005
     12 O1          8.5095    3.1096   -0.0642 O.3       1 <0>        -0.5871
     13 N2          8.4298    0.7925   -0.0877 N.2       1 <0>        -0.6608
     14 C9          9.7657    0.7534   -0.1033 C.2       1 <0>         0.6373
     15 N3         10.4984   -0.4049   -0.1239 N.pl3     1 <0>        -0.7377
     16 C10        11.9119    0.0141   -0.1365 C.3       1 <0>         0.0118
     17 C11        11.8294    1.5273   -0.1200 C.2       1 <0>         0.4859
     18 O2         12.7611    2.3088   -0.1232 O.2       1 <0>        -0.5415
     19 N4         10.5379    1.8290   -0.1065 N.2       1 <0>        -0.6386
     20 H1         -0.9544    1.8848    0.0258 H         1 <0>         0.1352
     21 H2          1.2211    3.1144    0.0068 H         1 <0>         0.1488
     22 H3         -0.8411   -0.6789    0.0064 H         1 <0>         0.1868
     23 H4          5.9243    4.1047   -0.0247 H         1 <0>         0.1825
     24 H5         12.4291   -0.3521    0.7504 H         1 <0>         0.0909
     25 H6         12.4077   -0.3338   -1.0427 H         1 <0>         0.0912
     26 H7         10.1573   -1.3130   -0.1288 H         1 <0>         0.4148
@<TRIPOS>BOND
     1    1    5 2
     2    1    2 1
     3    1   20 1
     4    2    3 2
     5    2   21 1
     6    3    4 1
     7    3    6 1
     8    4    5 1
     9    5   22 1
    10    6   10 1
    11    6    7 2
    12    7    8 1
    13    8    9 2
    14    8   23 1
    15    9   10 1
    16    9   11 1
    17   11   12 1
    18   11   13 2
    19   13   14 1
    20   14   15 1
    21   14   19 2
    22   15   16 1
    23   15   26 1
    24   16   17 1
    25   16   24 1
    26   16   25 1
    27   17   18 2
    28   17   19 1
@<TRIPOS>MOLECULE
ZINC06668752
   37    38     0     0     0
SMALL
USER_CHARGES
4-chloro-5-(3-nitrophenyl)sulfonyl-cyclohexane-1,2-dicarboxylic acid
@<TRIPOS>ATOM
      1 C1          6.9028    0.2032   -2.1587 C.ar      1 <0>        -0.1312
      2 C2          7.0465    1.4794   -2.6705 C.ar      1 <0>        -0.0088
      3 C3          5.9555    2.1347   -3.2097 C.ar      1 <0>        -0.0664
      4 C4          4.7216    1.5119   -3.2419 C.ar      1 <0>         0.0454
      5 C5          4.5767    0.2382   -2.7251 C.ar      1 <0>        -0.6513
      6 C6          5.6680   -0.4173   -2.1858 C.ar      1 <0>         0.0363
      7 S1          3.0027   -0.5529   -2.7601 S.o2      1 <0>         2.4827
      8 O1          3.2955   -1.9373   -2.8908 O.2       1 <0>        -0.9210
      9 O2          2.2749    0.1321   -3.7703 O.2       1 <0>        -0.9340
     10 C7          2.2767   -0.2188   -1.1316 C.3       1 <0>        -0.5461
     11 H1          2.8653   -0.7182   -0.3621 H         1 <0>         0.1592
     12 C8          2.2747    1.2893   -0.8738 C.3       1 <0>        -0.0831
     13 C9          1.6624    1.5711    0.4997 C.3       1 <0>        -0.1090
     14 H2          1.6609    2.6455    0.6834 H         1 <0>         0.0764
     15 C10         0.2258    1.0457    0.5352 C.3       1 <0>        -0.1056
     16 H3         -0.3628    1.5450   -0.2344 H         1 <0>         0.0536
     17 C11         0.2279   -0.4624    0.2774 C.3       1 <0>        -0.0993
     18 C12         0.8402   -0.7442   -1.0961 C.3       1 <0>         0.0217
     19 H4          0.2515   -0.2448   -1.8657 H         1 <0>         0.1111
     20 Cl1         0.8425   -2.5214   -1.4000 Cl        1 <0>        -0.1891
     21 C13        -0.3773    1.3232    1.8881 C.2       1 <0>         0.4861
     22 O3          0.2750    1.8837    2.7368 O.co2     1 <0>        -0.6149
     23 C14         2.4762    0.8806    1.5637 C.2       1 <0>         0.4886
     24 O4          1.9602    0.0533    2.2772 O.co2     1 <0>        -0.6050
     25 N1          6.1093    3.5013   -3.7571 N.pl3     1 <0>         0.0341
     26 O5          7.1972    4.0484   -3.7325 O.2       1 <0>        -0.1655
     27 O6          5.1478    4.0788   -4.2322 O.3       1 <0>        -0.1541
     28 H5          7.7553   -0.3089   -1.7375 H         1 <0>         0.1578
     29 H6          8.0112    1.9645   -2.6487 H         1 <0>         0.1589
     30 H7          3.8700    2.0222   -3.6672 H         1 <0>         0.1716
     31 H8          5.5557   -1.4142   -1.7860 H         1 <0>         0.1613
     32 H9          3.2981    1.6636   -0.8991 H         1 <0>         0.0791
     33 H10         1.6861    1.7887   -1.6434 H         1 <0>         0.0706
     34 H11         0.8165   -0.9618    1.0470 H         1 <0>         0.1144
     35 H12        -0.7955   -0.8367    0.3027 H         1 <0>         0.0760
     36 O7         -1.6390    0.9477    2.1502 O.co2     1 <0>        -0.7986
     37 O8          3.7743    1.1848    1.7188 O.co2     1 <0>        -0.8020
@<TRIPOS>BOND
     1    1    6 ar
     2    1    2 ar
     3    1   28 1
     4    2    3 ar
     5    2   29 1
     6    3    4 ar
     7    3   25 1
     8    4    5 ar
     9    4   30 1
    10    5    6 ar
    11    5    7 1
    12    6   31 1
    13    7    8 2
    14    7    9 2
    15    7   10 1
    16   10   11 1
    17   10   18 1
    18   10   12 1
    19   12   13 1
    20   12   32 1
    21   12   33 1
    22   13   14 1
    23   13   15 1
    24   13   23 1
    25   15   16 1
    26   15   17 1
    27   15   21 1
    28   17   18 1
    29   17   34 1
    30   17   35 1
    31   18   19 1
    32   18   20 1
    33   21   22 2
    34   21   36 1
    35   23   24 2
    36   23   37 1
    37   25   26 2
    38   25   27 1
@<TRIPOS>MOLECULE
ZINC19791580
   33    34     0     0     0
SMALL
USER_CHARGES
4-[(E)-[[2-[(3,5-dioxo-2H-1,2,4-triazin-6-yl)sulfanyl]acetyl]hydrazono]methyl]benzoic acid
@<TRIPOS>ATOM
      1 C1         -3.6954    1.8819    0.0303 C.ar      1 <0>        -0.1044
      2 C2         -2.5033    1.2154    0.0205 C.ar      1 <0>        -0.0961
      3 C3         -1.3020    1.9310    0.0187 C.ar      1 <0>        -0.0941
      4 C4         -1.3208    3.3291    0.0323 C.ar      1 <0>        -0.0858
      5 C5         -2.5127    3.9962    0.0366 C.ar      1 <0>        -0.0912
      6 C6         -3.7145    3.2805    0.0384 C.ar      1 <0>        -0.0716
      7 C7         -5.0002    3.9997    0.0484 C.2       1 <0>         0.1179
      8 N1         -5.0178    5.2980    0.0560 N.2       1 <0>        -0.2305
      9 N2         -6.2405    5.9819    0.0655 N.am      1 <0>        -0.5927
     10 C8         -6.2587    7.3295    0.0734 C.2       1 <0>         0.5511
     11 O1         -5.2166    7.9502    0.0722 O.2       1 <0>        -0.4869
     12 C9         -7.5739    8.0652    0.0836 C.3       1 <0>        -0.1589
     13 S1         -7.2667    9.8530    0.0925 S.3       1 <0>         0.0723
     14 C10        -8.8794   10.5626    0.1040 C.2       1 <0>        -0.0136
     15 C11        -9.0534   12.0247    0.1132 C.2       1 <0>         0.5145
     16 O2         -8.0849   12.7611    0.1126 O.3       1 <0>        -0.5558
     17 N3        -10.3018   12.5365    0.1219 N.2       1 <0>        -0.6809
     18 C12       -11.3677   11.7148    0.1225 C.2       1 <0>         0.6389
     19 O3        -12.4878   12.1889    0.1308 O.2       1 <0>        -0.6106
     20 N4        -11.2160   10.3789    0.1137 N.am      1 <0>        -0.5862
     21 H1        -12.1005    9.7249    0.1180 H         1 <0>         0.4332
     22 N5         -9.9420    9.7988    0.0990 N.2       1 <0>        -0.2441
     23 C13        -0.0144    1.2108    0.0087 C.2       1 <0>         0.4868
     24 O4          0.0021   -0.0041    0.0020 O.co2     1 <0>        -0.6326
     25 O5          1.1433    1.9003    0.0013 O.co2     1 <0>        -0.7519
     26 H2         -4.6232    1.3291    0.0320 H         1 <0>         0.1207
     27 H3         -2.4885    0.1355    0.0139 H         1 <0>         0.1296
     28 H4         -0.3928    3.8816    0.0354 H         1 <0>         0.1338
     29 H5         -2.5272    5.0761    0.0433 H         1 <0>         0.1302
     30 H6         -5.9453    3.4368    0.0494 H         1 <0>         0.1185
     31 H7         -7.1856    5.4190    0.0665 H         1 <0>         0.4008
     32 H8         -8.1511    7.7968   -0.8135 H         1 <0>         0.1198
     33 H9         -8.1430    7.7865    0.9827 H         1 <0>         0.1197
@<TRIPOS>BOND
     1    1    6 ar
     2    1    2 ar
     3    1   26 1
     4    2    3 ar
     5    2   27 1
     6    3    4 ar
     7    3   23 1
     8    4    5 ar
     9    4   28 1
    10    5    6 ar
    11    5   29 1
    12    6    7 1
    13    7    8 2
    14    7   30 1
    15    8    9 1
    16    9   10 am
    17    9   31 1
    18   10   11 2
    19   10   12 1
    20   12   13 1
    21   12   32 1
    22   12   33 1
    23   13   14 1
    24   14   22 2
    25   14   15 1
    26   15   16 1
    27   15   17 2
    28   17   18 1
    29   18   19 2
    30   18   20 am
    31   20   21 1
    32   20   22 1
    33   23   24 2
    34   23   25 1
@<TRIPOS>MOLECULE
ZINC13448541
   39    39     0     0     0
SMALL
USER_CHARGES

@<TRIPOS>ATOM
      1 C1         -0.0187    1.5258    0.0104 C.3       1 <0>        -0.1645
      2 C2          0.0021   -0.0041    0.0020 C.3       1 <0>         0.1306
      3 N1          0.6878   -0.4765   -1.2033 N.am      1 <0>        -0.7422
      4 C3          0.8268   -1.7986   -1.4250 C.2       1 <0>         0.6953
      5 O1          0.3834   -2.5989   -0.6250 O.2       1 <0>        -0.5322
      6 N2          1.4577   -2.2333   -2.5339 N.am      1 <0>        -0.6884
      7 C4          1.5967   -3.5554   -2.7556 C.2       1 <0>         0.5398
      8 O2          1.1544   -4.3537   -1.9576 O.2       1 <0>        -0.4521
      9 C5          2.3021   -4.0414   -3.9955 C.3       1 <0>        -0.1380
     10 S1          2.3267   -5.8552   -4.0055 S.3       1 <0>         0.0115
     11 C6          3.1731   -6.2618   -5.4964 C.ar      1 <0>         0.3029
     12 N3          3.6107   -5.2851   -6.2784 N.ar      1 <0>        -0.6250
     13 C7          4.2517   -5.5588   -7.4078 C.ar      1 <0>         0.4454
     14 O3          4.6980   -4.5575   -8.2044 O.3       1 <0>        -0.6927
     15 C8          4.4599   -6.8911   -7.7632 C.ar      1 <0>        -0.2692
     16 C9          3.9881   -7.8802   -6.9209 C.ar      1 <0>         0.1573
     17 N4          3.3612   -7.5367   -5.8059 N.ar      1 <0>        -0.5830
     18 C10         4.1897   -9.3335   -7.2646 C.3       1 <0>        -0.0911
     19 C11         5.1827   -7.2446   -9.0374 C.3       1 <0>        -0.0172
     20 C12         6.6827   -7.3575   -8.7583 C.3       1 <0>        -0.1644
     21 C13         7.4055   -7.7110  -10.0326 C.2       1 <0>         0.4945
     22 O4          6.7789   -7.8589  -11.0679 O.co2     1 <0>        -0.7032
     23 O5          8.6169   -7.8491  -10.0281 O.co2     1 <0>        -0.7220
     24 H1          1.0039    1.9031    0.0027 H         1 <0>         0.0624
     25 H2         -0.5459    1.8868   -0.8726 H         1 <0>         0.0622
     26 H3         -0.5289    1.8773    0.9072 H         1 <0>         0.0742
     27 H4          0.5293   -0.3651    0.8851 H         1 <0>         0.0678
     28 H5         -1.0205   -0.3814    0.0098 H         1 <0>         0.0677
     29 H6          1.0417    0.1622   -1.8418 H         1 <0>         0.3990
     30 H7          1.8116   -1.5946   -3.1724 H         1 <0>         0.4130
     31 H8          1.7749   -3.6803   -4.8786 H         1 <0>         0.1248
     32 H9          3.3247   -3.6641   -4.0032 H         1 <0>         0.1252
     33 H10         5.1327   -9.6796   -6.8414 H         1 <0>         0.0659
     34 H11         3.3693   -9.9214   -6.8530 H         1 <0>         0.0600
     35 H12         4.2129   -9.4508   -8.3480 H         1 <0>         0.0743
     36 H13         4.8104   -8.1974   -9.4140 H         1 <0>         0.0499
     37 H14         5.0090   -6.4671   -9.7813 H         1 <0>         0.0636
     38 H15         7.0550   -6.4048   -8.3818 H         1 <0>         0.0540
     39 H16         6.8564   -8.1350   -8.0144 H         1 <0>         0.0442
@<TRIPOS>BOND
     1    1    2 1
     2    1   24 1
     3    1   25 1
     4    1   26 1
     5    2    3 1
     6    2   27 1
     7    2   28 1
     8    3    4 am
     9    3   29 1
    10    4    5 2
    11    4    6 am
    12    6    7 am
    13    6   30 1
    14    7    8 2
    15    7    9 1
    16    9   10 1
    17    9   31 1
    18    9   32 1
    19   10   11 1
    20   11   17 ar
    21   11   12 ar
    22   12   13 ar
    23   13   14 1
    24   13   15 ar
    25   15   16 ar
    26   15   19 1
    27   16   17 ar
    28   16   18 1
    29   18   33 1
    30   18   34 1
    31   18   35 1
    32   19   20 1
    33   19   36 1
    34   19   37 1
    35   20   21 1
    36   20   38 1
    37   20   39 1
    38   21   22 2
    39   21   23 1
@<TRIPOS>MOLECULE
ZINC55329833
   26    27     0     0     0
SMALL
USER_CHARGES

@<TRIPOS>ATOM
      1 C1         -0.0187    1.5258    0.0104 C.3       1 <0>        -0.1668
      2 C2          0.0021   -0.0041    0.0020 C.3       1 <0>         0.2519
      3 H1         -1.0205   -0.3814    0.0098 H         1 <0>         0.1040
      4 C3          0.7309   -0.5033    1.2229 C.2       1 <0>         0.0588
      5 N1          0.1851   -1.0396    2.3047 N.2       1 <0>        -0.3799
      6 N2          1.1411   -1.3355    3.1177 N.2       1 <0>        -0.1999
      7 N3          2.2643   -1.0033    2.5830 N.2       1 <0>        -0.1999
      8 N4          2.0414   -0.4957    1.4189 N.2       1 <0>        -0.3771
      9 N5          0.6878   -0.4765   -1.2033 N.pl3     1 <0>        -1.0961
     10 S1         -0.1875   -0.8749   -2.5515 S.o2      1 <0>         2.7172
     11 O1          0.7512   -1.2650   -3.5445 O.2       1 <0>        -0.9606
     12 O2         -1.2362   -1.7295   -2.1169 O.2       1 <0>        -0.9500
     13 C4         -0.9505    0.6032   -3.1327 C.2       1 <0>        -0.7124
     14 C5         -0.6988    1.2442   -4.3526 C.2       1 <0>        -0.1037
     15 C6         -1.5150    2.3552   -4.3885 C.2       1 <0>        -0.0218
     16 O3         -2.2268    2.3823   -3.2411 O.3       1 <0>        -0.1185
     17 C7         -1.8940    1.3283   -2.4862 C.2       1 <0>         0.0603
     18 Br1        -2.6211    0.9198   -0.7890 Br        1 <0>         0.0778
     19 C8         -1.5929    3.3003   -5.4418 C.2       1 <0>         0.5545
     20 O4         -0.8920    3.1667   -6.4377 O.co2     1 <0>        -0.6548
     21 O5         -2.3611    4.2508   -5.3564 O.co2     1 <0>        -0.6681
     22 H2          1.0039    1.9031    0.0027 H         1 <0>         0.0655
     23 H3         -0.5459    1.8868   -0.8726 H         1 <0>         0.0534
     24 H4         -0.5289    1.8773    0.9072 H         1 <0>         0.0689
     25 H5          1.6545   -0.5560   -1.2117 H         1 <0>         0.4241
     26 H6         -0.0020    0.9299   -5.1156 H         1 <0>         0.1732
@<TRIPOS>BOND
     1    1    2 1
     2    1   22 1
     3    1   23 1
     4    1   24 1
     5    2    3 1
     6    2    9 1
     7    2    4 1
     8    4    5 2
     9    4    8 1
    10    5    6 1
    11    6    7 2
    12    7    8 1
    13    9   10 1
    14    9   25 1
    15   10   11 2
    16   10   12 2
    17   10   13 1
    18   13   17 2
    19   13   14 1
    20   14   15 2
    21   14   26 1
    22   15   16 1
    23   15   19 1
    24   16   17 1
    25   17   18 1
    26   19   20 2
    27   19   21 1
@<TRIPOS>MOLECULE
ZINC58343184
   35    37     0     0     0
SMALL
USER_CHARGES

@<TRIPOS>ATOM
      1 C1         -0.0167    1.3823    0.0096 C.ar      1 <0>        -0.1307
      2 C2          1.1808    2.0721    0.0019 C.ar      1 <0>         0.0949
      3 N1          2.3308    1.4269   -0.0130 N.ar      1 <0>        -0.4879
      4 C3          2.3867    0.1094   -0.0206 C.ar      1 <0>         0.0874
      5 C4          1.2303   -0.6473   -0.0132 C.ar      1 <0>        -0.1586
      6 C5          0.0021   -0.0041    0.0020 C.ar      1 <0>        -0.0497
      7 C6         -1.2819   -0.7930    0.0105 C.3       1 <0>         0.1904
      8 N2         -1.7116   -1.0413   -1.3678 N.pl3     1 <0>        -0.4012
      9 C7         -1.9822   -2.2478   -1.9088 C.2       1 <0>         0.0344
     10 C8         -2.3455   -2.0529   -3.1969 C.2       1 <0>        -0.2710
     11 C9         -2.2953   -0.6733   -3.4545 C.2       1 <0>         0.3804
     12 N3         -1.9194   -0.0674   -2.3529 N.2       1 <0>        -0.4171
     13 N4         -2.5987   -0.0526   -4.6720 N.2       1 <0>        -1.0635
     14 S1         -2.4893    1.5939   -4.8119 S.o2      1 <0>         2.6504
     15 O1         -3.4932    2.1408   -3.9679 O.2       1 <0>        -1.0503
     16 O2         -1.1140    1.9228   -4.6719 O.2       1 <0>        -1.0379
     17 C10        -2.9402    2.0075   -6.4642 C.2       1 <0>        -0.6972
     18 C11        -2.0731    2.0962   -7.5554 C.2       1 <0>        -0.0806
     19 C12        -2.8392    2.4445   -8.6516 C.2       1 <0>        -0.0557
     20 N5         -4.1437    2.5622   -8.2229 N.pl3     1 <0>        -0.5210
     21 H1         -4.9025    2.7976   -8.7794 H         1 <0>         0.4119
     22 C13        -4.1916    2.2903   -6.9030 C.2       1 <0>         0.0748
     23 C14        -2.3549    2.6507  -10.0150 C.2       1 <0>         0.5543
     24 O3         -3.1396    2.9589  -10.9037 O.co2     1 <0>        -0.7074
     25 O4         -1.1643    2.5154  -10.2691 O.co2     1 <0>        -0.6778
     26 H2         -0.9553    1.9163    0.0259 H         1 <0>         0.1367
     27 H3          1.1748    3.1521    0.0078 H         1 <0>         0.1543
     28 H4          3.3473   -0.3840   -0.0331 H         1 <0>         0.1504
     29 H5          1.2825   -1.7260   -0.0195 H         1 <0>         0.1295
     30 H6         -1.1205   -1.7443    0.5177 H         1 <0>         0.0907
     31 H7         -2.0522   -0.2277    0.5351 H         1 <0>         0.0789
     32 H8         -1.9194   -3.1999   -1.4029 H         1 <0>         0.1498
     33 H9         -2.6246   -2.8217   -3.9021 H         1 <0>         0.1294
     34 H10        -1.0067    1.9253   -7.5446 H         1 <0>         0.1421
     35 H11        -5.0827    2.2993   -6.2930 H         1 <0>         0.1669
@<TRIPOS>BOND
     1    1    6 ar
     2    1    2 ar
     3    1   26 1
     4    2    3 ar
     5    2   27 1
     6    3    4 ar
     7    4    5 ar
     8    4   28 1
     9    5    6 ar
    10    5   29 1
    11    6    7 1
    12    7    8 1
    13    7   30 1
    14    7   31 1
    15    8   12 1
    16    8    9 1
    17    9   10 2
    18    9   32 1
    19   10   11 1
    20   10   33 1
    21   11   12 2
    22   11   13 1
    23   13   14 1
    24   14   15 2
    25   14   16 2
    26   14   17 1
    27   17   22 2
    28   17   18 1
    29   18   19 2
    30   18   34 1
    31   19   20 1
    32   19   23 1
    33   20   21 1
    34   20   22 1
    35   22   35 1
    36   23   24 2
    37   23   25 1
@<TRIPOS>MOLECULE
ZINC13176867
   46    47     0     0     0
SMALL
USER_CHARGES
(3S)-3-[[(2S)-2-(4-chlorophenyl)-3-methyl-butanoyl]amino]-3-(4-fluorophenyl)propanoic acid
@<TRIPOS>ATOM
      1 C1         -0.1026    2.5577   -2.3718 C.3       1 <0>        -0.1429
      2 C2         -0.2409    2.6319   -0.8499 C.3       1 <0>        -0.0772
      3 C3         -1.5608    3.3170   -0.4905 C.3       1 <0>        -0.1552
      4 C4         -0.2252    1.2174   -0.2668 C.3       1 <0>        -0.0612
      5 H1         -1.0568    0.6455   -0.6784 H         1 <0>         0.0879
      6 C5          1.0740    0.5418   -0.6226 C.ar      1 <0>        -0.0563
      7 C6          2.2739    1.0912   -0.2110 C.ar      1 <0>        -0.0613
      8 C7          3.4656    0.4690   -0.5322 C.ar      1 <0>        -0.1142
      9 C8          3.4579   -0.6979   -1.2755 C.ar      1 <0>        -0.0368
     10 C9          2.2570   -1.2443   -1.6920 C.ar      1 <0>        -0.1201
     11 C10         1.0657   -0.6242   -1.3653 C.ar      1 <0>        -0.1046
     12 Cl1         4.9545   -1.4765   -1.6849 Cl        1 <0>        -0.0845
     13 C11        -0.3592    1.2906    1.2325 C.2       1 <0>         0.5217
     14 O1          0.6330    1.3183    1.9293 O.2       1 <0>        -0.4701
     15 N1         -1.5817    1.3252    1.7989 N.am      1 <0>        -0.7253
     16 C12        -1.7126    1.4784    3.2499 C.3       1 <0>         0.2009
     17 H2         -0.7854    1.1698    3.7330 H         1 <0>         0.1074
     18 C13        -1.9987    2.9438    3.5843 C.3       1 <0>        -0.1687
     19 C14        -0.8306    3.7941    3.1558 C.2       1 <0>         0.4525
     20 O2          0.1952    3.2712    2.7897 O.co2     1 <0>        -0.5992
     21 C15        -2.8472    0.6193    3.7454 C.ar      1 <0>        -0.0857
     22 C16        -4.0158    0.5283    3.0123 C.ar      1 <0>        -0.0864
     23 C17        -5.0548   -0.2637    3.4629 C.ar      1 <0>        -0.1503
     24 C18        -4.9296   -0.9569    4.6549 C.ar      1 <0>         0.0850
     25 C19        -3.7609   -0.8605    5.3911 C.ar      1 <0>        -0.1496
     26 C20        -2.7209   -0.0727    4.9355 C.ar      1 <0>        -0.0814
     27 F1         -5.9472   -1.7264    5.0995 F         1 <0>        -0.1452
     28 H3         -0.1138    3.5654   -2.7872 H         1 <0>         0.0558
     29 H4          0.8377    2.0695   -2.6278 H         1 <0>         0.0548
     30 H5         -0.9333    1.9853   -2.7846 H         1 <0>         0.0518
     31 H6          0.5898    3.2043   -0.4371 H         1 <0>         0.0841
     32 H7         -1.6421    3.4034    0.5931 H         1 <0>         0.0756
     33 H8         -1.5877    4.3109   -0.9372 H         1 <0>         0.0566
     34 H9         -2.3930    2.7249   -0.8712 H         1 <0>         0.0468
     35 H10         2.2800    2.0045    0.3654 H         1 <0>         0.1448
     36 H11         4.4027    0.8960   -0.2069 H         1 <0>         0.1306
     37 H12         2.2504   -2.1550   -2.2725 H         1 <0>         0.1280
     38 H13         0.1283   -1.0504   -1.6907 H         1 <0>         0.1273
     39 H14        -2.3748    1.2488    1.2457 H         1 <0>         0.3853
     40 H15        -2.8965    3.2679    3.0581 H         1 <0>         0.0622
     41 H16        -2.1495    3.0485    4.6588 H         1 <0>         0.0693
     42 H17        -4.1151    1.0731    2.0851 H         1 <0>         0.1295
     43 H18        -5.9661   -0.3379    2.8880 H         1 <0>         0.1329
     44 H19        -3.6623   -1.4005    6.3212 H         1 <0>         0.1336
     45 H20        -1.8092    0.0026    5.5096 H         1 <0>         0.1352
     46 O3         -0.9299    5.1325    3.1808 O.co2     1 <0>        -0.7832
@<TRIPOS>BOND
     1    1    2 1
     2    1   28 1
     3    1   29 1
     4    1   30 1
     5    2    3 1
     6    2    4 1
     7    2   31 1
     8    3   32 1
     9    3   33 1
    10    3   34 1
    11    4    5 1
    12    4    6 1
    13    4   13 1
    14    6   11 ar
    15    6    7 ar
    16    7    8 ar
    17    7   35 1
    18    8    9 ar
    19    8   36 1
    20    9   10 ar
    21    9   12 1
    22   10   11 ar
    23   10   37 1
    24   11   38 1
    25   13   14 2
    26   13   15 am
    27   15   16 1
    28   15   39 1
    29   16   17 1
    30   16   18 1
    31   16   21 1
    32   18   19 1
    33   18   40 1
    34   18   41 1
    35   19   20 2
    36   19   46 1
    37   21   26 ar
    38   21   22 ar
    39   22   23 ar
    40   22   42 1
    41   23   24 ar
    42   23   43 1
    43   24   25 ar
    44   24   27 1
    45   25   26 ar
    46   25   44 1
    47   26   45 1
@<TRIPOS>MOLECULE
ZINC17085391
   38    40     0     0     0
SMALL
USER_CHARGES

@<TRIPOS>ATOM
      1 C1          0.1533    1.3716    0.6372 C.ar      1 <0>        -0.0917
      2 C2          1.1730    2.0863    0.0354 C.ar      1 <0>        -0.1235
      3 C3          2.2141    1.4216   -0.5857 C.ar      1 <0>        -0.0887
      4 C4          2.2387    0.0397   -0.6069 C.ar      1 <0>        -0.0692
      5 C5          1.2156   -0.6807   -0.0026 C.ar      1 <0>         0.1574
      6 C6          0.1719   -0.0093    0.6201 C.ar      1 <0>        -0.1192
      7 N1          1.2367   -2.0802   -0.0224 N.am      1 <0>        -0.6650
      8 C7          0.0859   -2.7732    0.0871 C.2       1 <0>         0.5205
      9 O1         -0.9758   -2.1870    0.1018 O.2       1 <0>        -0.5016
     10 C8          0.1184   -4.2762    0.1912 C.3       1 <0>        -0.1199
     11 C9         -1.3108   -4.8106    0.3042 C.3       1 <0>        -0.0758
     12 H1         -1.9301   -4.4510   -0.5176 H         1 <0>         0.1657
     13 C10        -1.3268   -6.3288    0.3827 C.2       1 <0>         0.5352
     14 O2         -0.9100   -7.0250   -0.5183 O.2       1 <0>        -0.4689
     15 N2         -1.8232   -6.8424    1.4951 N.am      1 <0>        -0.6522
     16 C11        -2.2985   -6.0577    2.5250 C.2       1 <0>         0.4055
     17 N3         -2.8101   -6.4455    3.6695 N.2       1 <0>        -0.4636
     18 C12        -3.2333   -5.5146    4.5809 C.ar      1 <0>         0.1014
     19 C13        -2.4423   -4.3990    4.8624 C.ar      1 <0>        -0.1319
     20 C14        -2.8743   -3.4649    5.7809 C.ar      1 <0>        -0.0884
     21 C15        -4.0893   -3.6320    6.4235 C.ar      1 <0>        -0.0365
     22 C16        -4.8781   -4.7364    6.1491 C.ar      1 <0>        -0.0948
     23 C17        -4.4601   -5.6744    5.2280 C.ar      1 <0>        -0.0842
     24 Cl1        -4.6256   -2.4523    7.5786 Cl        1 <0>        -0.0626
     25 S1         -2.0541   -4.3880    1.9341 S.3       1 <0>        -0.0967
     26 Cl2         3.5455   -0.7946   -1.3879 Cl        1 <0>        -0.0644
     27 H2         -0.6563    1.8940    1.1251 H         1 <0>         0.1345
     28 H3          1.1558    3.1660    0.0504 H         1 <0>         0.1347
     29 H4          3.0087    1.9826   -1.0551 H         1 <0>         0.1384
     30 H5         -0.6247   -0.5664    1.0907 H         1 <0>         0.1554
     31 H6          2.0796   -2.5513   -0.1148 H         1 <0>         0.4158
     32 H7          0.5925   -4.6919   -0.6979 H         1 <0>         0.1309
     33 H8          0.6859   -4.5670    1.0752 H         1 <0>         0.1178
     34 H9         -1.8541   -7.8072    1.5908 H         1 <0>         0.4225
     35 H10        -1.4941   -4.2679    4.3623 H         1 <0>         0.1393
     36 H11        -2.2633   -2.6015    5.9995 H         1 <0>         0.1396
     37 H12        -5.8245   -4.8615    6.6542 H         1 <0>         0.1425
     38 H13        -5.0783   -6.5331    5.0115 H         1 <0>         0.1417
@<TRIPOS>BOND
     1    1    6 ar
     2    1    2 ar
     3    1   27 1
     4    2    3 ar
     5    2   28 1
     6    3    4 ar
     7    3   29 1
     8    4    5 ar
     9    4   26 1
    10    5    6 ar
    11    5    7 1
    12    6   30 1
    13    7    8 am
    14    7   31 1
    15    8    9 2
    16    8   10 1
    17   10   11 1
    18   10   32 1
    19   10   33 1
    20   11   12 1
    21   11   25 1
    22   11   13 1
    23   13   14 2
    24   13   15 am
    25   15   16 1
    26   15   34 1
    27   16   17 2
    28   16   25 1
    29   17   18 1
    30   18   23 ar
    31   18   19 ar
    32   19   20 ar
    33   19   35 1
    34   20   21 ar
    35   20   36 1
    36   21   22 ar
    37   21   24 1
    38   22   23 ar
    39   22   37 1
    40   23   38 1
@<TRIPOS>MOLECULE
ZINC50856481
   35    35     0     0     0
SMALL
USER_CHARGES

@<TRIPOS>ATOM
      1 C1         -0.1950    1.0579   -0.3675 C.3       1 <0>        -0.1096
      2 C2         -0.1021   -0.4521   -0.1388 C.3       1 <0>        -0.0743
      3 H1         -1.0904   -0.8448    0.1002 H         1 <0>         0.1321
      4 C3          0.8390   -0.7300    1.0049 C.2       1 <0>         0.3555
      5 O1          2.1516   -0.8967    0.7697 O.3       1 <0>        -0.6241
      6 C4          0.3588   -0.8124    2.2781 C.2       1 <0>        -0.4181
      7 C5          1.2233   -1.2201    3.3444 C.1       1 <0>         0.3181
      8 N1          1.9091   -1.5436    4.1903 N.1       1 <0>        -0.5336
      9 C6         -1.0466   -0.4826    2.5564 C.2       1 <0>         0.5922
     10 O2         -1.7502   -0.0257    1.6754 O.2       1 <0>        -0.5787
     11 N2         -1.5555   -0.6865    3.7876 N.am      1 <0>        -0.7430
     12 C7         -2.9560   -0.3579    4.0650 C.3       1 <0>         0.1513
     13 C8         -3.2715   -0.6774    5.5036 C.2       1 <0>        -0.1672
     14 C9         -3.7697    0.2477    6.2859 C.2       1 <0>        -0.1782
     15 S1          0.5199   -1.2542   -1.6423 S.3       1 <0>        -0.1053
     16 C10         0.3480   -2.9759   -1.3092 C.ar      1 <0>        -0.0442
     17 C11        -0.3167   -3.4008   -0.1652 C.ar      1 <0>        -0.1198
     18 C12        -0.4501   -4.7507    0.0928 C.ar      1 <0>        -0.0675
     19 C13         0.0772   -5.6800   -0.7865 C.ar      1 <0>        -0.1077
     20 C14         0.7396   -5.2602   -1.9265 C.ar      1 <0>        -0.0755
     21 C15         0.8718   -3.9117   -2.1928 C.ar      1 <0>        -0.1056
     22 Br1        -0.1073   -7.5278   -0.4290 Br        1 <0>        -0.0671
     23 H2          0.8043    1.4635   -0.5258 H         1 <0>         0.0547
     24 H3         -0.8104    1.2553   -1.2451 H         1 <0>         0.0581
     25 H4         -0.6449    1.5306    0.5056 H         1 <0>         0.0865
     26 H5         -0.9945   -1.0508    4.4901 H         1 <0>         0.3949
     27 H6         -3.1228    0.7039    3.8836 H         1 <0>         0.0651
     28 H7         -3.6029   -0.9440    3.4123 H         1 <0>         0.0699
     29 H8         -3.0870   -1.6691    5.8895 H         1 <0>         0.1119
     30 H9         -3.9542    1.2394    5.9000 H         1 <0>         0.0988
     31 H10        -3.9958    0.0187    7.3169 H         1 <0>         0.0986
     32 H11        -0.7282   -2.6759    0.5216 H         1 <0>         0.1375
     33 H12        -0.9663   -5.0816    0.9819 H         1 <0>         0.1303
     34 H13         1.1501   -5.9880   -2.6108 H         1 <0>         0.1313
     35 H14         1.3850   -3.5847   -3.0851 H         1 <0>         0.1327
@<TRIPOS>BOND
     1    1    2 1
     2    1   23 1
     3    1   24 1
     4    1   25 1
     5    2    3 1
     6    2    4 1
     7    2   15 1
     8    4    5 1
     9    4    6 2
    10    6    7 1
    11    6    9 1
    12    7    8 3
    13    9   10 2
    14    9   11 am
    15   11   12 1
    16   11   26 1
    17   12   13 1
    18   12   27 1
    19   12   28 1
    20   13   14 2
    21   13   29 1
    22   14   30 1
    23   14   31 1
    24   15   16 1
    25   16   21 ar
    26   16   17 ar
    27   17   18 ar
    28   17   32 1
    29   18   19 ar
    30   18   33 1
    31   19   20 ar
    32   19   22 1
    33   20   21 ar
    34   20   34 1
    35   21   35 1
@<TRIPOS>MOLECULE
ZINC43284318
   48    50     0     0     0
SMALL
USER_CHARGES

@<TRIPOS>ATOM
      1 C1         -0.0377    1.5251    0.0307 C.3       1 <0>        -0.1439
      2 C2          0.0021   -0.0041    0.0020 C.3       1 <0>         0.2093
      3 H1         -1.0137   -0.3927   -0.0705 H         1 <0>         0.1076
      4 C3          0.8019   -0.4635   -1.1897 C.ar      1 <0>        -0.1672
      5 C4          2.1537   -0.7159   -1.0595 C.ar      1 <0>        -0.0773
      6 C5          2.8883   -1.1369   -2.1525 C.ar      1 <0>        -0.2266
      7 C6          2.2729   -1.3074   -3.3793 C.ar      1 <0>        -0.0686
      8 C7          0.9218   -1.0573   -3.5163 C.ar      1 <0>        -0.2536
      9 C8          0.1795   -0.6391   -2.4189 C.ar      1 <0>         0.2965
     10 N1         -1.1883   -0.3904   -2.5527 N.2       1 <0>        -1.0923
     11 S1         -1.9285   -0.6004   -4.0192 S.o2      1 <0>         2.5260
     12 O1         -1.3222    0.3608   -4.8723 O.2       1 <0>        -1.0307
     13 O2         -1.8066   -1.9897   -4.2912 O.2       1 <0>        -1.0311
     14 C9         -3.6669   -0.1706   -3.7297 C.3       1 <0>        -0.6371
     15 N2          0.6279   -0.4994    1.2305 N.am      1 <0>        -0.7230
     16 C10        -0.1214   -0.7103    2.3308 C.2       1 <0>         0.5094
     17 O3         -1.3137   -0.4900    2.3039 O.2       1 <0>        -0.5334
     18 C11         0.5224   -1.2198    3.5945 C.3       1 <0>        -0.1077
     19 C12        -0.5255   -1.3690    4.6672 C.ar      1 <0>        -0.0542
     20 C13        -0.8040   -0.2937    5.5091 C.ar      1 <0>        -0.0953
     21 C14        -1.7440   -0.3953    6.4880 C.ar      1 <0>        -0.1102
     22 C15        -2.4465   -1.6010    6.6550 C.ar      1 <0>        -0.0522
     23 C16        -3.4244   -1.7436    7.6542 C.ar      1 <0>        -0.1071
     24 C17        -4.0849   -2.9262    7.7861 C.ar      1 <0>        -0.1212
     25 C18        -3.8065   -4.0014    6.9440 C.ar      1 <0>        -0.1225
     26 C19        -2.8662   -3.8998    5.9654 C.ar      1 <0>        -0.1026
     27 C20        -2.1635   -2.6942    5.7987 C.ar      1 <0>        -0.0480
     28 C21        -1.1896   -2.5499    4.7959 C.ar      1 <0>        -0.0923
     29 H2          0.9780    1.9138    0.1031 H         1 <0>         0.0432
     30 H3         -0.5034    1.8937   -0.8834 H         1 <0>         0.0725
     31 H4         -0.6163    1.8575    0.8926 H         1 <0>         0.0454
     32 H5          2.6373   -0.5838   -0.1029 H         1 <0>         0.0987
     33 H6          3.9453   -1.3329   -2.0481 H         1 <0>         0.0997
     34 H7          2.8497   -1.6361   -4.2311 H         1 <0>         0.0995
     35 H8          0.4419   -1.1902   -4.4747 H         1 <0>         0.1019
     36 H9         -3.7338    0.8625   -3.3885 H         1 <0>         0.1153
     37 H10        -4.2285   -0.2841   -4.6569 H         1 <0>         0.1000
     38 H11        -4.0830   -0.8319   -2.9696 H         1 <0>         0.1154
     39 H12         1.5815   -0.6755    1.2521 H         1 <0>         0.3928
     40 H13         0.9854   -2.1875    3.4018 H         1 <0>         0.1014
     41 H14         1.2830   -0.5126    3.9255 H         1 <0>         0.1007
     42 H15        -0.2656    0.6340    5.3829 H         1 <0>         0.1214
     43 H16        -1.9487    0.4461    7.1334 H         1 <0>         0.1254
     44 H17        -3.6504   -0.9191    8.3142 H         1 <0>         0.1241
     45 H18        -4.8357   -3.0333    8.5550 H         1 <0>         0.1196
     46 H19        -4.3449   -4.9291    7.0702 H         1 <0>         0.1203
     47 H20        -2.6609   -4.7415    5.3205 H         1 <0>         0.1259
     48 H21        -0.9665   -3.3731    4.1333 H         1 <0>         0.1260
@<TRIPOS>BOND
     1    1    2 1
     2    1   29 1
     3    1   30 1
     4    1   31 1
     5    2    3 1
     6    2    4 1
     7    2   15 1
     8    4    9 ar
     9    4    5 ar
    10    5    6 ar
    11    5   32 1
    12    6    7 ar
    13    6   33 1
    14    7    8 ar
    15    7   34 1
    16    8    9 ar
    17    8   35 1
    18    9   10 1
    19   10   11 1
    20   11   12 2
    21   11   13 2
    22   11   14 1
    23   14   36 1
    24   14   37 1
    25   14   38 1
    26   15   16 am
    27   15   39 1
    28   16   17 2
    29   16   18 1
    30   18   19 1
    31   18   40 1
    32   18   41 1
    33   19   28 ar
    34   19   20 ar
    35   20   21 ar
    36   20   42 1
    37   21   22 ar
    38   21   43 1
    39   22   27 ar
    40   22   23 ar
    41   23   24 ar
    42   23   44 1
    43   24   25 ar
    44   24   45 1
    45   25   26 ar
    46   25   46 1
    47   26   27 ar
    48   26   47 1
    49   27   28 ar
    50   28   48 1
@<TRIPOS>MOLECULE
ZINC67601642
   34    36     0     0     0
SMALL
USER_CHARGES

@<TRIPOS>ATOM
      1 C1          0.1605    1.3673    0.6701 C.ar      1 <0>        -0.0964
      2 C2          1.1762    2.0858    0.0662 C.ar      1 <0>        -0.1489
      3 C3          2.2125    1.4252   -0.5673 C.ar      1 <0>        -0.0931
      4 C4          2.2362    0.0435   -0.5988 C.ar      1 <0>        -0.0895
      5 C5          1.2170   -0.6810    0.0077 C.ar      1 <0>         0.1930
      6 C6          0.1780   -0.0134    0.6430 C.ar      1 <0>        -0.1209
      7 N1          1.2371   -2.0793   -0.0224 N.pl3     1 <0>        -0.6680
      8 C7          0.0733   -2.7802    0.0883 C.2       1 <0>         0.5497
      9 O1         -1.1060   -2.1293    0.1046 O.3       1 <0>        -0.6139
     10 C8          0.1034   -4.1697    0.1846 C.2       1 <0>        -0.4332
     11 C9          1.3571   -4.8616    0.1672 C.1       1 <0>         0.2828
     12 N2          2.3516   -5.4105    0.1535 N.1       1 <0>        -0.5048
     13 C10        -1.1474   -4.9231    0.3036 C.2       1 <0>         0.4973
     14 O2         -2.2151   -4.3338    0.3183 O.2       1 <0>        -0.4637
     15 C11        -1.1157   -6.3852    0.4048 C.2       1 <0>        -0.2019
     16 C12        -2.1639   -7.2901    0.5181 C.2       1 <0>         0.0668
     17 N3         -1.8992   -8.5642    0.5947 N.2       1 <0>        -0.4907
     18 C13        -0.6473   -9.0190    0.5670 C.2       1 <0>         0.1278
     19 S1          0.2827   -7.5003    0.4091 S.3       1 <0>         0.1089
     20 C14        -0.1603  -10.4025    0.6411 C.2       1 <0>        -0.0786
     21 C15        -0.8834  -11.5773    0.7522 C.2       1 <0>        -0.1118
     22 C16        -0.1954  -12.7660    0.8037 C.2       1 <0>        -0.1564
     23 C17         1.1628  -12.7518    0.7446 C.2       1 <0>        -0.1730
     24 S2          1.5188  -11.0083    0.6037 S.3       1 <0>         0.0951
     25 Cl1         3.5370   -0.7856   -1.3952 Cl        1 <0>        -0.0796
     26 H1         -0.6453    1.8867    1.1676 H         1 <0>         0.1257
     27 H2          1.1597    3.1654    0.0892 H         1 <0>         0.1236
     28 H3          3.0040    1.9892   -1.0382 H         1 <0>         0.1276
     29 H4         -0.6158   -0.5734    1.1149 H         1 <0>         0.1672
     30 H5          2.0793   -2.5501   -0.1220 H         1 <0>         0.4048
     31 H6         -3.1860   -6.9420    0.5427 H         1 <0>         0.1802
     32 H7         -1.9623  -11.5604    0.7975 H         1 <0>         0.1442
     33 H8         -0.7281  -13.7014    0.8906 H         1 <0>         0.1394
     34 H9          1.8509  -13.5838    0.7723 H         1 <0>         0.1903
@<TRIPOS>BOND
     1    1    6 ar
     2    1    2 ar
     3    1   26 1
     4    2    3 ar
     5    2   27 1
     6    3    4 ar
     7    3   28 1
     8    4    5 ar
     9    4   25 1
    10    5    6 ar
    11    5    7 1
    12    6   29 1
    13    7    8 1
    14    7   30 1
    15    8    9 1
    16    8   10 2
    17   10   11 1
    18   10   13 1
    19   11   12 3
    20   13   14 2
    21   13   15 1
    22   15   19 1
    23   15   16 2
    24   16   17 1
    25   16   31 1
    26   17   18 2
    27   18   19 1
    28   18   20 1
    29   20   24 1
    30   20   21 2
    31   21   22 1
    32   21   32 1
    33   22   23 2
    34   22   33 1
    35   23   24 1
    36   23   34 1
@<TRIPOS>MOLECULE
ZINC13174860
   47    48     0     0     0
SMALL
USER_CHARGES
(3S)-3-(4-chlorophenyl)-3-[3-(3,4-dimethylphenyl)sulfanylpropanoylamino]propanoic acid
@<TRIPOS>ATOM
      1 C1          2.4990    1.5230   -0.2070 C.3       1 <0>        -0.1154
      2 C2          1.1554    2.2048   -0.2361 C.ar      1 <0>        -0.0963
      3 C3         -0.0018    1.4536   -0.1357 C.ar      1 <0>        -0.0962
      4 C4         -1.2346    2.0742   -0.1681 C.ar      1 <0>        -0.1326
      5 C5         -1.3118    3.4566   -0.2904 C.ar      1 <0>        -0.0782
      6 C6         -0.1473    4.2079   -0.3910 C.ar      1 <0>        -0.0986
      7 C7          1.0823    3.5797   -0.3635 C.ar      1 <0>        -0.0719
      8 C8          2.3459    4.3938   -0.4721 C.3       1 <0>        -0.1164
      9 S1         -2.8829    4.2536   -0.3255 S.3       1 <0>        -0.1223
     10 C9         -4.0699    2.8911   -0.1667 C.3       1 <0>        -0.0846
     11 C10        -5.4938    3.4507   -0.1831 C.3       1 <0>        -0.1263
     12 C11        -6.4799    2.3188   -0.0512 C.2       1 <0>         0.5266
     13 O1         -6.0829    1.1770    0.0465 O.2       1 <0>        -0.5435
     14 N1         -7.8030    2.5754   -0.0416 N.am      1 <0>        -0.6996
     15 C12        -8.7635    1.4693   -0.0218 C.3       1 <0>         0.2010
     16 H1         -8.3903    0.6756    0.6254 H         1 <0>         0.1023
     17 C13       -10.1078    1.9708    0.5093 C.3       1 <0>        -0.1644
     18 C14        -9.9576    2.3775    1.9526 C.2       1 <0>         0.4592
     19 O2         -8.9137    2.1839    2.5293 O.co2     1 <0>        -0.6276
     20 C15        -8.9432    0.9350   -1.4194 C.ar      1 <0>        -0.0743
     21 C16        -9.0076    1.8076   -2.4897 C.ar      1 <0>        -0.0964
     22 C17        -9.1668    1.3178   -3.7723 C.ar      1 <0>        -0.1117
     23 C18        -9.2730   -0.0454   -3.9837 C.ar      1 <0>        -0.0417
     24 C19        -9.2142   -0.9178   -2.9116 C.ar      1 <0>        -0.1093
     25 C20        -9.0493   -0.4271   -1.6300 C.ar      1 <0>        -0.0929
     26 Cl1        -9.4807   -0.6608   -5.5936 Cl        1 <0>        -0.0827
     27 H2          2.7965    1.2627   -1.2228 H         1 <0>         0.0692
     28 H3          3.2386    2.1959    0.2270 H         1 <0>         0.0696
     29 H4          2.4339    0.6172    0.3958 H         1 <0>         0.0649
     30 H5          0.0591    0.3799   -0.0363 H         1 <0>         0.1248
     31 H6         -2.1378    1.4866   -0.0945 H         1 <0>         0.1272
     32 H7         -0.2037    5.2818   -0.4909 H         1 <0>         0.1265
     33 H8          2.6246    4.4938   -1.5211 H         1 <0>         0.0710
     34 H9          2.1790    5.3824   -0.0445 H         1 <0>         0.0663
     35 H10         3.1479    3.8938    0.0709 H         1 <0>         0.0712
     36 H11        -3.9419    2.1989   -0.9988 H         1 <0>         0.0948
     37 H12        -3.8967    2.3661    0.7727 H         1 <0>         0.0974
     38 H13        -5.6218    4.1430    0.6490 H         1 <0>         0.1053
     39 H14        -5.6670    3.9758   -1.1225 H         1 <0>         0.1007
     40 H15        -8.1192    3.4923   -0.0479 H         1 <0>         0.3992
     41 H16       -10.4331    2.8294   -0.0781 H         1 <0>         0.0718
     42 H17       -10.8489    1.1753    0.4312 H         1 <0>         0.0825
     43 H18        -8.9291    2.8719   -2.3241 H         1 <0>         0.1285
     44 H19        -9.2127    1.9993   -4.6089 H         1 <0>         0.1296
     45 H20        -9.2974   -1.9819   -3.0759 H         1 <0>         0.1309
     46 H21        -9.0037   -1.1080   -0.7929 H         1 <0>         0.1332
     47 O3        -10.9836    2.9548    2.5975 O.co2     1 <0>        -0.7710
@<TRIPOS>BOND
     1    1    2 1
     2    1   27 1
     3    1   28 1
     4    1   29 1
     5    2    7 ar
     6    2    3 ar
     7    3    4 ar
     8    3   30 1
     9    4    5 ar
    10    4   31 1
    11    5    6 ar
    12    5    9 1
    13    6    7 ar
    14    6   32 1
    15    7    8 1
    16    8   33 1
    17    8   34 1
    18    8   35 1
    19    9   10 1
    20   10   11 1
    21   10   36 1
    22   10   37 1
    23   11   12 1
    24   11   38 1
    25   11   39 1
    26   12   13 2
    27   12   14 am
    28   14   15 1
    29   14   40 1
    30   15   16 1
    31   15   17 1
    32   15   20 1
    33   17   18 1
    34   17   41 1
    35   17   42 1
    36   18   19 2
    37   18   47 1
    38   20   25 ar
    39   20   21 ar
    40   21   22 ar
    41   21   43 1
    42   22   23 ar
    43   22   44 1
    44   23   24 ar
    45   23   26 1
    46   24   25 ar
    47   24   45 1
    48   25   46 1
@<TRIPOS>MOLECULE
ZINC05408971
   46    48     0     0     0
SMALL
USER_CHARGES
(5S)-5-(4-chlorophenyl)-3-hydroxy-1-[(2R)-2-hydroxypropyl]-4-(4-methylbenzoyl)-5H-pyrrol-2-one
@<TRIPOS>ATOM
      1 C1         -5.7893   -2.6176    2.1729 C.3       1 <0>        -0.1147
      2 C2         -4.7736   -1.5091    2.2760 C.ar      1 <0>        -0.0769
      3 C3         -4.1269   -1.2770    3.4773 C.ar      1 <0>        -0.1386
      4 C4         -3.1968   -0.2636    3.5789 C.ar      1 <0>        -0.0719
      5 C5         -2.9079    0.5288    2.4659 C.ar      1 <0>        -0.1424
      6 C6         -3.5677    0.2922    1.2580 C.ar      1 <0>        -0.0586
      7 C7         -4.4921   -0.7277    1.1691 C.ar      1 <0>        -0.1387
      8 C8         -1.9124    1.6173    2.5674 C.2       1 <0>         0.5013
      9 O1         -1.4181    1.8910    3.6449 O.2       1 <0>        -0.4756
     10 C9         -1.5209    2.3666    1.3699 C.2       1 <0>        -0.4978
     11 C10        -1.7242    3.6861    1.1382 C.2       1 <0>         0.2631
     12 C11        -1.1773    4.0361   -0.1898 C.2       1 <0>         0.5099
     13 O2         -1.2063    5.1448   -0.6858 O.2       1 <0>        -0.5389
     14 N1         -0.6430    2.9452   -0.7683 N.am      1 <0>        -0.6028
     15 C12        -0.8121    1.8165    0.1543 C.3       1 <0>         0.2669
     16 H1         -1.3864    1.0153   -0.3338 H         1 <0>         0.0825
     17 C13         0.5331    1.2614    0.5459 C.ar      1 <0>        -0.0640
     18 C14         1.5738    2.1200    0.8471 C.ar      1 <0>        -0.0822
     19 C15         2.8094    1.6115    1.2007 C.ar      1 <0>        -0.1115
     20 C16         3.0045    0.2428    1.2533 C.ar      1 <0>        -0.0426
     21 C17         1.9626   -0.6160    0.9519 C.ar      1 <0>        -0.1124
     22 C18         0.7274   -0.1063    0.5984 C.ar      1 <0>        -0.1010
     23 Cl1         4.5560   -0.3966    1.6980 Cl        1 <0>        -0.0875
     24 C19        -0.0052    2.8932   -2.0862 C.3       1 <0>         0.1430
     25 C20        -1.0572    2.5718   -3.1496 C.3       1 <0>         0.0939
     26 H2         -1.8782    3.3037   -3.1324 H         1 <0>         0.0543
     27 C21        -0.3911    2.5175   -4.5259 C.3       1 <0>        -0.1807
     28 O3         -1.6562    1.3071   -2.8601 O.3       1 <0>        -0.5885
     29 O4         -2.3320    4.5462    1.9872 O.3       1 <0>        -0.6531
     30 H3         -5.8785   -3.1247    3.1450 H         1 <0>         0.0623
     31 H4         -5.4661   -3.3413    1.4101 H         1 <0>         0.0676
     32 H5         -6.7646   -2.1959    1.8884 H         1 <0>         0.0677
     33 H6         -4.3513   -1.8906    4.3373 H         1 <0>         0.1193
     34 H7         -2.6928   -0.0836    4.5170 H         1 <0>         0.1274
     35 H8         -3.3523    0.9042    0.3946 H         1 <0>         0.1353
     36 H9         -5.0006   -0.9139    0.2347 H         1 <0>         0.1204
     37 H10         1.4213    3.1884    0.8060 H         1 <0>         0.1257
     38 H11         3.6222    2.2824    1.4362 H         1 <0>         0.1275
     39 H12         2.1144   -1.6845    0.9925 H         1 <0>         0.1276
     40 H13        -0.0861   -0.7767    0.3634 H         1 <0>         0.1291
     41 H14         0.4559    3.8667   -2.3090 H         1 <0>         0.0917
     42 H15         0.7690    2.1118   -2.0883 H         1 <0>         0.0812
     43 H16        -1.1475    2.2864   -5.2904 H         1 <0>         0.0578
     44 H17         0.3830    1.7360   -4.5280 H         1 <0>         0.0636
     45 H18         0.0700    3.4910   -4.7487 H         1 <0>         0.0646
     46 H19        -2.4403    0.9062   -3.5192 H         1 <0>         0.3966
@<TRIPOS>BOND
     1    1    2 1
     2    1   30 1
     3    1   31 1
     4    1   32 1
     5    2    7 ar
     6    2    3 ar
     7    3    4 ar
     8    3   33 1
     9    4    5 ar
    10    4   34 1
    11    5    6 ar
    12    5    8 1
    13    6    7 ar
    14    6   35 1
    15    7   36 1
    16    8    9 2
    17    8   10 1
    18   10   15 1
    19   10   11 2
    20   11   12 1
    21   11   29 1
    22   12   13 2
    23   12   14 am
    24   14   15 1
    25   14   24 1
    26   15   16 1
    27   15   17 1
    28   17   22 ar
    29   17   18 ar
    30   18   19 ar
    31   18   37 1
    32   19   20 ar
    33   19   38 1
    34   20   21 ar
    35   20   23 1
    36   21   22 ar
    37   21   39 1
    38   22   40 1
    39   24   25 1
    40   24   41 1
    41   24   42 1
    42   25   26 1
    43   25   27 1
    44   25   28 1
    45   27   43 1
    46   27   44 1
    47   27   45 1
    48   28   46 1
@<TRIPOS>MOLECULE
ZINC37405630
   31    31     0     0     0
SMALL
USER_CHARGES

@<TRIPOS>ATOM
      1 C1         -1.2652    1.1827    0.1811 C.3       1 <0>        -0.1149
      2 C2         -0.5843   -0.1582    0.0843 C.ar      1 <0>        -0.1108
      3 C3         -0.5692   -0.8408   -1.1164 C.ar      1 <0>        -0.0686
      4 C4          0.0560   -2.0713   -1.2061 C.ar      1 <0>        -0.1133
      5 C5          0.6680   -2.6220   -0.0942 C.ar      1 <0>        -0.0704
      6 C6          0.6558   -1.9444    1.1089 C.ar      1 <0>        -0.1138
      7 C7          0.0336   -0.7060    1.2006 C.ar      1 <0>         0.1714
      8 N1          0.0246   -0.0143    2.4171 N.am      1 <0>        -0.6748
      9 C8         -0.0569   -0.6939    3.5782 C.2       1 <0>         0.5343
     10 O1         -0.0402   -1.9066    3.5734 O.2       1 <0>        -0.4874
     11 C9         -0.1688    0.0531    4.8822 C.3       1 <0>        -0.1428
     12 S1         -0.2598   -1.1324    6.2522 S.3       1 <0>        -0.1592
     13 C10        -0.3892   -0.0872    7.7292 C.3       1 <0>        -0.1350
     14 H1          0.4441    0.6152    7.7514 H         1 <0>         0.0780
     15 C11        -1.7081    0.6873    7.6919 C.3       1 <0>        -0.1215
     16 C12        -0.3495   -0.9527    8.9622 C.2       1 <0>         0.5168
     17 O2          0.7182   -1.2135    9.4899 O.co2     1 <0>        -0.6808
     18 O3         -1.3852   -1.3922    9.4320 O.co2     1 <0>        -0.6748
     19 I1          0.0758   -3.1035   -3.0291 I         1 <0>        -0.0499
     20 H2         -0.5503    1.9711   -0.0539 H         1 <0>         0.0734
     21 H3         -2.0940    1.2212   -0.5258 H         1 <0>         0.0731
     22 H4         -1.6440    1.3256    1.1932 H         1 <0>         0.0682
     23 H5         -1.0464   -0.4135   -1.9859 H         1 <0>         0.1311
     24 H6          1.1554   -3.5830   -0.1672 H         1 <0>         0.1320
     25 H7          1.1330   -2.3751    1.9767 H         1 <0>         0.1507
     26 H8          0.0770    0.9543    2.4247 H         1 <0>         0.4125
     27 H9          0.7053    0.6914    5.0115 H         1 <0>         0.1074
     28 H10        -1.0691    0.6674    4.8729 H         1 <0>         0.1082
     29 H11        -2.5414   -0.0150    7.6697 H         1 <0>         0.0722
     30 H12        -1.7859    1.3154    8.5793 H         1 <0>         0.0561
     31 H13        -1.7368    1.3134    6.8001 H         1 <0>         0.0326
@<TRIPOS>BOND
     1    1    2 1
     2    1   20 1
     3    1   21 1
     4    1   22 1
     5    2    7 ar
     6    2    3 ar
     7    3    4 ar
     8    3   23 1
     9    4    5 ar
    10    4   19 1
    11    5    6 ar
    12    5   24 1
    13    6    7 ar
    14    6   25 1
    15    7    8 1
    16    8    9 am
    17    8   26 1
    18    9   10 2
    19    9   11 1
    20   11   12 1
    21   11   27 1
    22   11   28 1
    23   12   13 1
    24   13   14 1
    25   13   15 1
    26   13   16 1
    27   15   29 1
    28   15   30 1
    29   15   31 1
    30   16   17 2
    31   16   18 1
@<TRIPOS>MOLECULE
ZINC55676518
   40    41     0     0     0
SMALL
USER_CHARGES

@<TRIPOS>ATOM
      1 C1          0.7902    1.3004   -1.2563 C.3       1 <0>        -0.1139
      2 C2          0.7235   -0.1980   -1.1096 C.ar      1 <0>        -0.0834
      3 C3          0.7705   -1.0028   -2.2339 C.ar      1 <0>        -0.1261
      4 C4          0.7098   -2.3753   -2.1065 C.ar      1 <0>        -0.0944
      5 C5          0.6014   -2.9512   -0.8401 C.ar      1 <0>        -0.0772
      6 C6          0.5549   -2.1339    0.2898 C.ar      1 <0>        -0.0927
      7 C7          0.6213   -0.7629    0.1491 C.ar      1 <0>        -0.1242
      8 C8          0.5354   -4.4208   -0.6964 C.2       1 <0>         0.0046
      9 C9          0.4324   -4.9650    0.5081 C.2       1 <0>        -0.6695
     10 S1          0.3538   -6.7169    0.6795 S.o2      1 <0>         2.5929
     11 O1         -0.7440   -6.9921    1.5387 O.2       1 <0>        -1.0322
     12 O2          0.4498   -7.2579   -0.6310 O.2       1 <0>        -1.0328
     13 N1          1.7186   -7.1914    1.4885 N.2       1 <0>        -1.0701
     14 C10         1.8856   -8.5305    1.8517 C.ar      1 <0>         0.3033
     15 C11         0.9800   -9.4869    1.4147 C.ar      1 <0>        -0.2781
     16 C12         1.1495  -10.8154    1.7770 C.ar      1 <0>         0.1910
     17 C13         2.2244  -11.1849    2.5757 C.ar      1 <0>        -0.2086
     18 C14         3.1246  -10.2309    3.0101 C.ar      1 <0>        -0.0551
     19 C15         2.9623   -8.9071    2.6465 C.ar      1 <0>        -0.1009
     20 Cl1         4.0998   -7.7129    3.1886 Cl        1 <0>        -0.0905
     21 N2          0.2378  -11.7827    1.3384 N.am      1 <0>        -0.6702
     22 C16         0.6587  -13.0362    1.0776 C.2       1 <0>         0.5056
     23 O3          1.8406  -13.3029    1.1327 O.2       1 <0>        -0.5291
     24 C17        -0.3393  -14.1065    0.7175 C.3       1 <0>        -0.1686
     25 H1          1.8311    1.6224   -1.2260 H         1 <0>         0.0704
     26 H2          0.3471    1.5924   -2.2084 H         1 <0>         0.0655
     27 H3          0.2407    1.7701   -0.4405 H         1 <0>         0.0657
     28 H4          0.8544   -0.5557   -3.2134 H         1 <0>         0.1238
     29 H5          0.7459   -3.0025   -2.9849 H         1 <0>         0.1287
     30 H6          0.4711   -2.5736    1.2727 H         1 <0>         0.1296
     31 H7          0.5892   -0.1293    1.0231 H         1 <0>         0.1240
     32 H8          0.5712   -5.0513   -1.5725 H         1 <0>         0.1396
     33 H9          0.3967   -4.3346    1.3842 H         1 <0>         0.1496
     34 H10         0.1448   -9.1977    0.7941 H         1 <0>         0.1086
     35 H11         2.3564  -12.2190    2.8577 H         1 <0>         0.1240
     36 H12         3.9592  -10.5208    3.6313 H         1 <0>         0.1194
     37 H13        -0.6969  -11.5508    1.2221 H         1 <0>         0.4073
     38 H14        -1.3433  -13.6822    0.7185 H         1 <0>         0.0757
     39 H15        -0.1110  -14.4973   -0.2741 H         1 <0>         0.0939
     40 H16        -0.2853  -14.9140    1.4476 H         1 <0>         0.0945
@<TRIPOS>BOND
     1    1    2 1
     2    1   25 1
     3    1   26 1
     4    1   27 1
     5    2    7 ar
     6    2    3 ar
     7    3    4 ar
     8    3   28 1
     9    4    5 ar
    10    4   29 1
    11    5    6 ar
    12    5    8 1
    13    6    7 ar
    14    6   30 1
    15    7   31 1
    16    8    9 2
    17    8   32 1
    18    9   10 1
    19    9   33 1
    20   10   11 2
    21   10   12 2
    22   10   13 1
    23   13   14 1
    24   14   19 ar
    25   14   15 ar
    26   15   16 ar
    27   15   34 1
    28   16   17 ar
    29   16   21 1
    30   17   18 ar
    31   17   35 1
    32   18   19 ar
    33   18   36 1
    34   19   20 1
    35   21   22 am
    36   21   37 1
    37   22   23 2
    38   22   24 1
    39   24   38 1
    40   24   39 1
    41   24   40 1
@<TRIPOS>MOLECULE
ZINC67028525
   41    43     0     0     0
SMALL
USER_CHARGES

@<TRIPOS>ATOM
      1 C1         -0.0184    1.5028    0.0103 C.3       1 <0>        -0.0933
      2 C2          0.0021   -0.0041    0.0020 C.2       1 <0>         0.3369
      3 C3         -1.2045   -0.7098    0.0040 C.2       1 <0>        -0.4182
      4 C4         -1.1183   -2.2249   -0.0046 C.3       1 <0>         0.3015
      5 H1         -1.6393   -2.5991    0.8766 H         1 <0>         0.0917
      6 N1          0.2383   -2.8012   -0.0143 N.pl3     1 <0>        -0.6937
      7 C5          1.2900   -1.9591   -0.0148 C.2       1 <0>         0.5716
      8 S1          2.8690   -2.6206   -0.0260 S.2       1 <0>        -0.7033
      9 N2          1.1543   -0.6367   -0.0124 N.2       1 <0>        -0.6107
     10 C6         -1.8459   -2.7288   -1.2244 C.2       1 <0>         0.0684
     11 N3         -3.0223   -3.2955   -1.2888 N.2       1 <0>        -0.4905
     12 C7         -3.5360   -3.6892   -2.4454 C.2       1 <0>         0.1003
     13 C8         -2.7708   -3.4703   -3.5596 C.2       1 <0>        -0.2441
     14 S2         -1.3411   -2.6894   -2.8290 S.3       1 <0>         0.1272
     15 C9         -4.8696   -4.3336   -2.5285 C.ar      1 <0>        -0.0100
     16 C10        -5.6664   -4.4413   -1.3901 C.ar      1 <0>        -0.0874
     17 C11        -6.9065   -5.0413   -1.4733 C.ar      1 <0>        -0.1235
     18 C12        -7.3590   -5.5352   -2.6836 C.ar      1 <0>        -0.1205
     19 C13        -6.5722   -5.4315   -3.8165 C.ar      1 <0>        -0.1223
     20 C14        -5.3328   -4.8283   -3.7463 C.ar      1 <0>        -0.1074
     21 C15        -2.4173   -0.0593    0.0138 C.2       1 <0>         0.4880
     22 O1         -2.4594    1.2878    0.0218 O.3       1 <0>        -0.6315
     23 O2         -3.5629   -0.7693    0.0155 O.3       1 <0>        -0.3173
     24 C16        -4.7850   -0.0289    0.0259 C.3       1 <0>         0.0985
     25 C17        -5.9509   -0.9838    0.0262 C.2       1 <0>        -0.1426
     26 C18        -6.9619   -0.7828    0.8347 C.2       1 <0>        -0.1856
     27 H2          1.0042    1.8801    0.0026 H         1 <0>         0.0600
     28 H3         -0.5455    1.8639   -0.8728 H         1 <0>         0.0878
     29 H4         -0.5286    1.8543    0.9071 H         1 <0>         0.0885
     30 H5          0.3706   -3.7621   -0.0199 H         1 <0>         0.4176
     31 H6         -2.9766   -3.7026   -4.5941 H         1 <0>         0.1910
     32 H7         -5.3140   -4.0563   -0.4446 H         1 <0>         0.1348
     33 H8         -7.5247   -5.1256   -0.5917 H         1 <0>         0.1221
     34 H9         -8.3300   -6.0040   -2.7441 H         1 <0>         0.1197
     35 H10        -6.9303   -5.8192   -4.7588 H         1 <0>         0.1223
     36 H11        -4.7212   -4.7438   -4.6324 H         1 <0>         0.1224
     37 H12        -4.8251    0.5937    0.9197 H         1 <0>         0.0669
     38 H13        -4.8340    0.6040   -0.8602 H         1 <0>         0.0682
     39 H14        -5.9529   -1.8338   -0.6400 H         1 <0>         0.1173
     40 H15        -6.9599    0.0671    1.5010 H         1 <0>         0.0969
     41 H16        -7.7974   -1.4672    0.8349 H         1 <0>         0.1024
@<TRIPOS>BOND
     1    1    2 1
     2    1   27 1
     3    1   28 1
     4    1   29 1
     5    2    9 2
     6    2    3 1
     7    3    4 1
     8    3   21 2
     9    4    5 1
    10    4    6 1
    11    4   10 1
    12    6    7 1
    13    6   30 1
    14    7    8 2
    15    7    9 1
    16   10   14 1
    17   10   11 2
    18   11   12 1
    19   12   13 2
    20   12   15 1
    21   13   14 1
    22   13   31 1
    23   15   20 ar
    24   15   16 ar
    25   16   17 ar
    26   16   32 1
    27   17   18 ar
    28   17   33 1
    29   18   19 ar
    30   18   34 1
    31   19   20 ar
    32   19   35 1
    33   20   36 1
    34   21   22 1
    35   21   23 1
    36   23   24 1
    37   24   25 1
    38   24   37 1
    39   24   38 1
    40   25   26 2
    41   25   39 1
    42   26   40 1
    43   26   41 1
@<TRIPOS>MOLECULE
ZINC38754572
   43    44     0     0     0
SMALL
USER_CHARGES

@<TRIPOS>ATOM
      1 C1          0.1634    1.5217    0.3740 C.3       1 <0>        -0.1090
      2 C2          0.1602    0.0157    0.3192 C.ar      1 <0>        -0.1289
      3 C3          0.1487   -0.6304   -0.9031 C.ar      1 <0>        -0.0808
      4 C4          0.1453   -2.0109   -0.9560 C.ar      1 <0>        -0.1465
      5 C5          0.1538   -2.7489    0.2186 C.ar      1 <0>         0.1272
      6 C6          0.1658   -2.0982    1.4438 C.ar      1 <0>        -0.2062
      7 C7          0.1744   -0.7176    1.4913 C.ar      1 <0>        -0.0815
      8 O1          0.1500   -4.1070    0.1692 O.3       1 <0>        -0.3092
      9 C8          0.1593   -4.8017    1.4180 C.3       1 <0>         0.0469
     10 C9          0.1533   -6.3102    1.1625 C.3       1 <0>         0.1267
     11 N1          1.3983   -6.6973    0.4944 N.am      1 <0>        -0.7356
     12 C10         1.6155   -7.9869    0.1685 C.2       1 <0>         0.5788
     13 O2          0.7780   -8.8291    0.4291 O.2       1 <0>        -0.5614
     14 C11         2.8691   -8.3767   -0.5042 C.ar      1 <0>        -0.2520
     15 C12         3.8353   -7.4104   -0.7993 C.ar      1 <0>        -0.0222
     16 C13         5.0040   -7.7766   -1.4270 C.ar      1 <0>        -0.2584
     17 C14         5.2251   -9.1078   -1.7684 C.ar      1 <0>         0.3235
     18 C15         4.2645  -10.0733   -1.4765 C.ar      1 <0>        -0.1081
     19 C16         3.0958   -9.7139   -0.8428 C.ar      1 <0>        -0.0024
     20 Cl1         4.5442  -11.7323   -1.9046 Cl        1 <0>        -0.0845
     21 N2          6.4075   -9.4745   -2.4029 N.2       1 <0>        -1.0702
     22 S1          7.4789   -8.3112   -2.8942 S.o2      1 <0>         2.5284
     23 O3          6.7469   -7.5075   -3.8093 O.2       1 <0>        -1.0238
     24 O4          7.9889   -7.7561   -1.6897 O.2       1 <0>        -1.0242
     25 C17         8.7852   -9.2189   -3.7662 C.3       1 <0>        -0.6353
     26 H1          1.1917    1.8831    0.3737 H         1 <0>         0.0672
     27 H2         -0.3613    1.9180   -0.4953 H         1 <0>         0.0640
     28 H3         -0.3379    1.8532    1.2833 H         1 <0>         0.0628
     29 H4          0.1420   -0.0554   -1.8173 H         1 <0>         0.1279
     30 H5          0.1355   -2.5151   -1.9111 H         1 <0>         0.1322
     31 H6          0.1725   -2.6706    2.3597 H         1 <0>         0.1276
     32 H7          0.1882   -0.2106    2.4448 H         1 <0>         0.1226
     33 H8          1.0550   -4.5315    1.9774 H         1 <0>         0.0706
     34 H9         -0.7249   -4.5270    1.9931 H         1 <0>         0.0777
     35 H10         0.0709   -6.8392    2.1120 H         1 <0>         0.0875
     36 H11        -0.6948   -6.5679    0.5282 H         1 <0>         0.0768
     37 H12         2.0664   -6.0254    0.2865 H         1 <0>         0.4017
     38 H13         3.6646   -6.3772   -0.5352 H         1 <0>         0.1085
     39 H14         5.7504   -7.0302   -1.6554 H         1 <0>         0.1148
     40 H15         2.3533  -10.4634   -0.6119 H         1 <0>         0.1282
     41 H16         8.3536   -9.7530   -4.6127 H         1 <0>         0.1176
     42 H17         9.5379   -8.5170   -4.1249 H         1 <0>         0.1034
     43 H18         9.2489   -9.9322   -3.0848 H         1 <0>         0.1174
@<TRIPOS>BOND
     1    1    2 1
     2    1   26 1
     3    1   27 1
     4    1   28 1
     5    2    7 ar
     6    2    3 ar
     7    3    4 ar
     8    3   29 1
     9    4    5 ar
    10    4   30 1
    11    5    6 ar
    12    5    8 1
    13    6    7 ar
    14    6   31 1
    15    7   32 1
    16    8    9 1
    17    9   10 1
    18    9   33 1
    19    9   34 1
    20   10   11 1
    21   10   35 1
    22   10   36 1
    23   11   12 am
    24   11   37 1
    25   12   13 2
    26   12   14 1
    27   14   19 ar
    28   14   15 ar
    29   15   16 ar
    30   15   38 1
    31   16   17 ar
    32   16   39 1
    33   17   18 ar
    34   17   21 1
    35   18   19 ar
    36   18   20 1
    37   19   40 1
    38   21   22 1
    39   22   23 2
    40   22   24 2
    41   22   25 1
    42   25   41 1
    43   25   42 1
    44   25   43 1
@<TRIPOS>MOLECULE
ZINC40091668
   50    52     0     0     0
SMALL
USER_CHARGES

@<TRIPOS>ATOM
      1 C1          0.2725    1.4137   -0.2232 C.3       1 <0>        -0.1499
      2 C2          0.2485   -0.1155   -0.1809 C.3       1 <0>        -0.1226
      3 C3          0.9538   -0.6017    1.0868 C.3       1 <0>         0.0567
      4 O1          0.9315   -2.0300    1.1264 O.3       1 <0>        -0.3135
      5 C4          1.5197   -2.6260    2.1941 C.ar      1 <0>         0.1411
      6 C5          2.1026   -1.8479    3.1885 C.ar      1 <0>        -0.2208
      7 C6          2.6999   -2.4484    4.2734 C.ar      1 <0>        -0.0288
      8 C7          2.7200   -3.8430    4.3750 C.ar      1 <0>        -0.1694
      9 C8          2.1328   -4.6215    3.3731 C.ar      1 <0>        -0.0360
     10 C9          1.5328   -4.0126    2.2938 C.ar      1 <0>        -0.1360
     11 C10         0.8945   -4.8506    1.2161 C.3       1 <0>        -0.0992
     12 C11         3.3599   -4.4913    5.5365 C.2       1 <0>         0.5088
     13 O2          3.3142   -5.7012    5.6596 O.2       1 <0>        -0.4753
     14 C12         4.0506   -3.6776    6.5420 C.2       1 <0>        -0.5031
     15 C13         5.3794   -3.6672    6.7978 C.2       1 <0>         0.2649
     16 C14         5.6569   -2.7064    7.8860 C.2       1 <0>         0.5127
     17 O3          6.7573   -2.4700    8.3437 O.2       1 <0>        -0.5351
     18 N1          4.5109   -2.1321    8.2949 N.am      1 <0>        -0.6074
     19 C15         3.4166   -2.6843    7.4877 C.3       1 <0>         0.3072
     20 H1          2.9262   -1.8906    6.9240 H         1 <0>         0.0940
     21 C16         2.4200   -3.3802    8.3784 C.2       1 <0>        -0.1003
     22 C17         1.0752   -3.4791    8.2407 C.2       1 <0>        -0.1793
     23 C18         0.3534   -4.1758    9.1916 C.2       1 <0>        -0.1447
     24 C19         1.0117   -4.7396   10.2338 C.2       1 <0>        -0.2049
     25 S1          2.7052   -4.2950    9.8848 S.3       1 <0>         0.0432
     26 C20         4.3795   -1.1285    9.3540 C.3       1 <0>         0.1346
     27 C21         4.5122    0.2709    8.7499 C.3       1 <0>         0.0594
     28 O4          3.4185    0.5123    7.8625 O.3       1 <0>        -0.5652
     29 O5          6.3066   -4.4172    6.1589 O.3       1 <0>        -0.6522
     30 H2          1.3057    1.7610   -0.2264 H         1 <0>         0.0577
     31 H3         -0.2300    1.7601   -1.1263 H         1 <0>         0.0624
     32 H4         -0.2412    1.8096    0.6529 H         1 <0>         0.0575
     33 H5         -0.7847   -0.4627   -0.1777 H         1 <0>         0.0719
     34 H6          0.7622   -0.5113   -1.0570 H         1 <0>         0.0723
     35 H7          1.9870   -0.2545    1.0837 H         1 <0>         0.0622
     36 H8          0.4402   -0.2059    1.9629 H         1 <0>         0.0618
     37 H9          2.0870   -0.7709    3.1091 H         1 <0>         0.1270
     38 H10         3.1527   -1.8434    5.0450 H         1 <0>         0.1374
     39 H11         2.1465   -5.6988    3.4476 H         1 <0>         0.1356
     40 H12         1.6339   -5.0806    0.4490 H         1 <0>         0.0643
     41 H13         0.5209   -5.7779    1.6504 H         1 <0>         0.0633
     42 H14         0.0670   -4.2993    0.7695 H         1 <0>         0.0659
     43 H15         0.5751   -3.0201    7.4007 H         1 <0>         0.1276
     44 H16        -0.7191   -4.2693    9.1057 H         1 <0>         0.1247
     45 H17         0.6152   -5.3125   11.0590 H         1 <0>         0.1772
     46 H18         3.4038   -1.2279    9.8297 H         1 <0>         0.0827
     47 H19         5.1629   -1.2794   10.0968 H         1 <0>         0.0937
     48 H20         4.5035    1.0134    9.5478 H         1 <0>         0.0520
     49 H21         5.4498    0.3411    8.1984 H         1 <0>         0.0508
     50 H22         3.4378    1.3830    7.4422 H         1 <0>         0.3733
@<TRIPOS>BOND
     1    1    2 1
     2    1   30 1
     3    1   31 1
     4    1   32 1
     5    2    3 1
     6    2   33 1
     7    2   34 1
     8    3    4 1
     9    3   35 1
    10    3   36 1
    11    4    5 1
    12    5   10 ar
    13    5    6 ar
    14    6    7 ar
    15    6   37 1
    16    7    8 ar
    17    7   38 1
    18    8    9 ar
    19    8   12 1
    20    9   10 ar
    21    9   39 1
    22   10   11 1
    23   11   40 1
    24   11   41 1
    25   11   42 1
    26   12   13 2
    27   12   14 1
    28   14   19 1
    29   14   15 2
    30   15   16 1
    31   15   29 1
    32   16   17 2
    33   16   18 am
    34   18   19 1
    35   18   26 1
    36   19   20 1
    37   19   21 1
    38   21   25 1
    39   21   22 2
    40   22   23 1
    41   22   43 1
    42   23   24 2
    43   23   44 1
    44   24   25 1
    45   24   45 1
    46   26   27 1
    47   26   46 1
    48   26   47 1
    49   27   28 1
    50   27   48 1
    51   27   49 1
    52   28   50 1
@<TRIPOS>MOLECULE
ZINC28195104
   46    48     0     0     0
SMALL
USER_CHARGES

@<TRIPOS>ATOM
      1 C1          0.0280   -2.9654   -2.3613 C.3       1 <0>        -0.1032
      2 C2          0.0229   -2.1140   -1.1179 C.ar      1 <0>         0.1600
      3 C3          0.0023   -0.7379   -1.2340 C.ar      1 <0>        -0.2188
      4 C4         -0.0027    0.0411   -0.0852 C.ar      1 <0>        -0.0451
      5 C5          0.0132   -0.5949    1.1439 C.ar      1 <0>        -0.2246
      6 C6          0.0335   -1.9843    1.1860 C.ar      1 <0>         0.3786
      7 N1          0.0326   -2.6926    0.0674 N.ar      1 <0>        -0.4765
      8 N2          0.0501   -2.6374    2.4165 N.am      1 <0>        -0.6648
      9 C7         -0.0332   -3.9816    2.4672 C.2       1 <0>         0.5631
     10 O1         -0.0293   -4.6302    1.4386 O.2       1 <0>        -0.4926
     11 C8         -0.1289   -4.6659    3.7701 C.ar      1 <0>        -0.2609
     12 C9         -0.1393   -3.9213    4.9534 C.ar      1 <0>        -0.0414
     13 C10        -0.2291   -4.5627    6.1674 C.ar      1 <0>        -0.1901
     14 C11        -0.3092   -5.9517    6.2183 C.ar      1 <0>         0.3122
     15 C12        -0.2992   -6.6961    5.0418 C.ar      1 <0>        -0.2768
     16 C13        -0.2153   -6.0603    3.8243 C.ar      1 <0>         0.0078
     17 N3         -0.3991   -6.5969    7.4467 N.2       1 <0>        -1.0808
     18 S1         -0.4944   -8.2490    7.5093 S.o2      1 <0>         2.5969
     19 O2         -1.7373   -8.6066    6.9205 O.2       1 <0>        -1.0281
     20 O3          0.7472   -8.7459    7.0289 O.2       1 <0>        -1.0256
     21 C14        -0.5940   -8.7011    9.2094 C.2       1 <0>        -0.6729
     22 C15        -1.6901   -9.2811    9.6779 C.2       1 <0>         0.0059
     23 C16        -1.7736   -9.6603   11.1041 C.ar      1 <0>        -0.0733
     24 C17        -0.7027   -9.4040   11.9611 C.ar      1 <0>        -0.0975
     25 C18        -0.7870   -9.7605   13.2913 C.ar      1 <0>        -0.1241
     26 C19        -1.9299  -10.3713   13.7758 C.ar      1 <0>        -0.1148
     27 C20        -2.9949  -10.6286   12.9312 C.ar      1 <0>        -0.1257
     28 C21        -2.9259  -10.2710   11.6004 C.ar      1 <0>        -0.0982
     29 H1         -0.9984   -3.1814   -2.6579 H         1 <0>         0.0771
     30 H2          0.5337   -2.4310   -3.1655 H         1 <0>         0.0721
     31 H3          0.5522   -3.8995   -2.1599 H         1 <0>         0.0794
     32 H4         -0.0093   -0.2727   -2.2086 H         1 <0>         0.1301
     33 H5         -0.0183    1.1191   -0.1489 H         1 <0>         0.1338
     34 H6          0.0101   -0.0196    2.0579 H         1 <0>         0.1337
     35 H7          0.1215   -2.1246    3.2368 H         1 <0>         0.4148
     36 H8         -0.0764   -2.8438    4.9146 H         1 <0>         0.1065
     37 H9         -0.2372   -3.9881    7.0818 H         1 <0>         0.1196
     38 H10        -0.3611   -7.7735    5.0846 H         1 <0>         0.1051
     39 H11        -0.2117   -6.6381    2.9119 H         1 <0>         0.1178
     40 H12         0.2380   -8.5056    9.8697 H         1 <0>         0.1505
     41 H13        -2.5220   -9.4765    9.0176 H         1 <0>         0.1411
     42 H14         0.1903   -8.9279   11.5840 H         1 <0>         0.1292
     43 H15         0.0412   -9.5627   13.9557 H         1 <0>         0.1246
     44 H16        -1.9907  -10.6488   14.8178 H         1 <0>         0.1221
     45 H17        -3.8841  -11.1063   13.3154 H         1 <0>         0.1245
     46 H18        -3.7600  -10.4677   10.9432 H         1 <0>         0.1289
@<TRIPOS>BOND
     1    1    2 1
     2    1   29 1
     3    1   30 1
     4    1   31 1
     5    2    7 ar
     6    2    3 ar
     7    3    4 ar
     8    3   32 1
     9    4    5 ar
    10    4   33 1
    11    5    6 ar
    12    5   34 1
    13    6    7 ar
    14    6    8 1
    15    8    9 am
    16    8   35 1
    17    9   10 2
    18    9   11 1
    19   11   16 ar
    20   11   12 ar
    21   12   13 ar
    22   12   36 1
    23   13   14 ar
    24   13   37 1
    25   14   15 ar
    26   14   17 1
    27   15   16 ar
    28   15   38 1
    29   16   39 1
    30   17   18 1
    31   18   19 2
    32   18   20 2
    33   18   21 1
    34   21   22 2
    35   21   40 1
    36   22   23 1
    37   22   41 1
    38   23   28 ar
    39   23   24 ar
    40   24   25 ar
    41   24   42 1
    42   25   26 ar
    43   25   43 1
    44   26   27 ar
    45   26   44 1
    46   27   28 ar
    47   27   45 1
    48   28   46 1
@<TRIPOS>MOLECULE
ZINC62049329
   58    60     0     0     0
SMALL
USER_CHARGES

@<TRIPOS>ATOM
      1 C1         -0.2997    1.3207    0.2789 C.3       1 <0>        -0.1475
      2 C2         -0.2412   -0.2069    0.2168 C.3       1 <0>        -0.1145
      3 C3          0.5075   -0.6377   -1.0461 C.3       1 <0>        -0.0795
      4 H1          0.0377   -0.1849   -1.9192 H         1 <0>         0.0572
      5 C4          1.9647   -0.1801   -0.9562 C.3       1 <0>        -0.1437
      6 C5          0.4584   -2.1616   -1.1732 C.3       1 <0>         0.0757
      7 H2         -0.5797   -2.4876   -1.2373 H         1 <0>         0.0763
      8 C6          1.1080   -2.7876    0.0339 C.2       1 <0>         0.4993
      9 O1          0.4385   -3.0522    1.0180 O.co2     1 <0>        -0.6930
     10 O2          2.3029   -3.0295    0.0265 O.co2     1 <0>        -0.6878
     11 N1          1.1752   -2.5740   -2.3825 N.am      1 <0>        -0.6942
     12 C7          0.8681   -3.7409   -2.9830 C.2       1 <0>         0.5042
     13 O3         -0.0018   -4.4494   -2.5223 O.2       1 <0>        -0.5336
     14 C8          1.6055   -4.1651   -4.2269 C.3       1 <0>        -0.0654
     15 C9          1.0760   -5.4960   -4.6954 C.2       1 <0>        -0.0207
     16 C10         1.5981   -6.7212   -4.4091 C.2       1 <0>         0.1176
     17 N2          0.8419   -7.6528   -5.0111 N.2       1 <0>        -0.4805
     18 C11        -0.1408   -7.0552   -5.6684 C.2       1 <0>         0.2298
     19 N3         -0.0220   -5.7016   -5.4829 N.pl3     1 <0>        -0.3515
     20 C12        -0.9193   -4.8445   -6.0525 C.2       1 <0>         0.0712
     21 C13        -1.9377   -5.3142   -6.8030 C.2       1 <0>        -0.1464
     22 C14        -2.0886   -6.6957   -7.0082 C.2       1 <0>        -0.0724
     23 C15        -1.1970   -7.5606   -6.4542 C.2       1 <0>        -0.0846
     24 C16        -3.2277   -7.2164   -7.8462 C.3       1 <0>        -0.1080
     25 C17         2.7978   -6.9814   -3.5752 C.ar      1 <0>        -0.0194
     26 C18         2.9911   -6.2763   -2.3888 C.ar      1 <0>        -0.0900
     27 C19         4.1085   -6.5222   -1.6172 C.ar      1 <0>        -0.1058
     28 C20         5.0358   -7.4668   -2.0195 C.ar      1 <0>        -0.0839
     29 C21         4.8491   -8.1691   -3.1962 C.ar      1 <0>        -0.0989
     30 C22         3.7319   -7.9355   -3.9726 C.ar      1 <0>        -0.0876
     31 C23         5.8639   -9.1961   -3.6282 C.3       1 <0>        -0.1111
     32 C24         6.2540   -7.7310   -1.1727 C.3       1 <0>        -0.1160
     33 H3          0.7133    1.7225    0.3022 H         1 <0>         0.0531
     34 H4         -0.8211    1.7003   -0.5998 H         1 <0>         0.0457
     35 H5         -0.8331    1.6276    1.1787 H         1 <0>         0.0492
     36 H6          0.2802   -0.5866    1.0956 H         1 <0>         0.0776
     37 H7         -1.2541   -0.6087    0.1936 H         1 <0>         0.0591
     38 H8          2.4345   -0.6328   -0.0831 H         1 <0>         0.0735
     39 H9          2.4980   -0.4869   -1.8559 H         1 <0>         0.0445
     40 H10         1.9996    0.9056   -0.8656 H         1 <0>         0.0464
     41 H11         1.8709   -2.0073   -2.7510 H         1 <0>         0.3916
     42 H12         1.4581   -3.4199   -5.0086 H         1 <0>         0.0950
     43 H13         2.6691   -4.2546   -4.0060 H         1 <0>         0.1187
     44 H14        -0.8132   -3.7805   -5.9007 H         1 <0>         0.1581
     45 H15        -2.6401   -4.6248   -7.2477 H         1 <0>         0.1482
     46 H16        -1.3041   -8.6247   -6.6045 H         1 <0>         0.1479
     47 H17        -3.8259   -6.3795   -8.2065 H         1 <0>         0.0681
     48 H18        -2.8297   -7.7711   -8.6960 H         1 <0>         0.0725
     49 H19        -3.8514   -7.8754   -7.2422 H         1 <0>         0.0732
     50 H20         2.2680   -5.5384   -2.0740 H         1 <0>         0.1306
     51 H21         4.2595   -5.9761   -0.6978 H         1 <0>         0.1310
     52 H22         3.5846   -8.4880   -4.8888 H         1 <0>         0.1221
     53 H23         5.5935  -10.1690   -3.2177 H         1 <0>         0.0668
     54 H24         5.8823   -9.2534   -4.7165 H         1 <0>         0.0617
     55 H25         6.8498   -8.9089   -3.2627 H         1 <0>         0.0680
     56 H26         6.0326   -8.5197   -0.4537 H         1 <0>         0.0686
     57 H27         7.0800   -8.0433   -1.8118 H         1 <0>         0.0671
     58 H28         6.5307   -6.8211   -0.6402 H         1 <0>         0.0668
@<TRIPOS>BOND
     1    1    2 1
     2    1   33 1
     3    1   34 1
     4    1   35 1
     5    2    3 1
     6    2   36 1
     7    2   37 1
     8    3    4 1
     9    3    5 1
    10    3    6 1
    11    5   38 1
    12    5   39 1
    13    5   40 1
    14    6    7 1
    15    6    8 1
    16    6   11 1
    17    8    9 2
    18    8   10 1
    19   11   12 am
    20   11   41 1
    21   12   13 2
    22   12   14 1
    23   14   15 1
    24   14   42 1
    25   14   43 1
    26   15   19 1
    27   15   16 2
    28   16   17 1
    29   16   25 1
    30   17   18 2
    31   18   23 1
    32   18   19 1
    33   19   20 1
    34   20   21 2
    35   20   44 1
    36   21   22 1
    37   21   45 1
    38   22   23 2
    39   22   24 1
    40   23   46 1
    41   24   47 1
    42   24   48 1
    43   24   49 1
    44   25   30 ar
    45   25   26 ar
    46   26   27 ar
    47   26   50 1
    48   27   28 ar
    49   27   51 1
    50   28   29 ar
    51   28   32 1
    52   29   30 ar
    53   29   31 1
    54   30   52 1
    55   31   53 1
    56   31   54 1
    57   31   55 1
    58   32   56 1
    59   32   57 1
    60   32   58 1
@<TRIPOS>MOLECULE
ZINC65875093
   49    50     0     0     0
SMALL
USER_CHARGES

@<TRIPOS>ATOM
      1 C1         -1.8081    1.3887    0.1582 C.3       1 <0>        -0.1421
      2 C2         -1.5493   -0.1190    0.1325 C.3       1 <0>        -0.5979
      3 S1         -3.1267   -1.0007   -0.0254 S.o2      1 <0>         2.5164
      4 O1         -3.8999   -0.8357    1.1554 O.2       1 <0>        -1.0297
      5 O2         -3.6968   -0.7589   -1.3043 O.2       1 <0>        -1.0297
      6 N1         -2.7175   -2.6053   -0.0417 N.2       1 <0>        -1.0392
      7 C3         -3.7071   -3.5731   -0.1537 C.ar      1 <0>         0.3318
      8 C4         -5.0413   -3.1990   -0.2580 C.ar      1 <0>        -0.2614
      9 C5         -6.0225   -4.1624   -0.3696 C.ar      1 <0>        -0.0469
     10 C6         -5.6877   -5.5074   -0.3786 C.ar      1 <0>        -0.2411
     11 C7         -4.3707   -5.8977   -0.2762 C.ar      1 <0>        -0.0415
     12 C8         -3.3645   -4.9341   -0.1679 C.ar      1 <0>        -0.2218
     13 C9         -1.9523   -5.3446   -0.0640 C.2       1 <0>         0.5657
     14 O3         -1.0801   -4.5030    0.0344 O.2       1 <0>        -0.5048
     15 N2         -1.6280   -6.6527   -0.0781 N.am      1 <0>        -0.7413
     16 C10        -0.2248   -7.0606    0.0251 C.3       1 <0>         0.1773
     17 C11        -0.1346   -8.5644   -0.0144 C.ar      1 <0>        -0.1332
     18 C12         0.0108   -9.2794    1.1589 C.ar      1 <0>        -0.0634
     19 C13         0.0941  -10.6589    1.1232 C.ar      1 <0>        -0.1629
     20 C14         0.0317  -11.3267   -0.0861 C.ar      1 <0>        -0.0787
     21 C15        -0.1140  -10.6165   -1.2618 C.ar      1 <0>        -0.2164
     22 C16        -0.2031   -9.2322   -1.2282 C.ar      1 <0>         0.1495
     23 O4         -0.3522   -8.5316   -2.3831 O.3       1 <0>        -0.2970
     24 C17        -0.5308   -9.2879   -3.5823 C.3       1 <0>         0.0772
     25 C18        -1.2765   -8.4393   -4.6142 C.3       1 <0>        -0.1504
     26 C19         0.8361   -9.6869   -4.1420 C.3       1 <0>        -0.1800
     27 H1         -0.8603    1.9186    0.2530 H         1 <0>         0.0678
     28 H2         -2.3010    1.6886   -0.7666 H         1 <0>         0.0634
     29 H3         -2.4475    1.6332    1.0065 H         1 <0>         0.0635
     30 H4         -0.9099   -0.3635   -0.7158 H         1 <0>         0.1202
     31 H5         -1.0564   -0.4188    1.0573 H         1 <0>         0.1203
     32 H6         -5.3104   -2.1531   -0.2514 H         1 <0>         0.1053
     33 H7         -7.0581   -3.8667   -0.4501 H         1 <0>         0.1030
     34 H8         -6.4637   -6.2535   -0.4661 H         1 <0>         0.1033
     35 H9         -4.1156   -6.9471   -0.2834 H         1 <0>         0.1030
     36 H10        -2.3238   -7.3240   -0.1565 H         1 <0>         0.3895
     37 H11         0.3379   -6.6409   -0.8087 H         1 <0>         0.0708
     38 H12         0.1914   -6.6962    0.9643 H         1 <0>         0.0664
     39 H13         0.0598   -8.7602    2.1046 H         1 <0>         0.1308
     40 H14         0.2084  -11.2160    2.0414 H         1 <0>         0.1225
     41 H15         0.0974  -12.4044   -0.1113 H         1 <0>         0.1214
     42 H16        -0.1627  -11.1385   -2.2060 H         1 <0>         0.1283
     43 H17        -1.1097  -10.1851   -3.3632 H         1 <0>         0.0716
     44 H18        -0.6976   -7.5421   -4.8333 H         1 <0>         0.0686
     45 H19        -1.4127   -9.0162   -5.5289 H         1 <0>         0.0740
     46 H20        -2.2503   -8.1550   -4.2155 H         1 <0>         0.0688
     47 H21         1.4149   -8.7897   -4.3611 H         1 <0>         0.0683
     48 H22         1.3673  -10.2915   -3.4069 H         1 <0>         0.0612
     49 H23         0.6998  -10.2638   -5.0567 H         1 <0>         0.0697
@<TRIPOS>BOND
     1    1    2 1
     2    1   27 1
     3    1   28 1
     4    1   29 1
     5    2    3 1
     6    2   30 1
     7    2   31 1
     8    3    4 2
     9    3    5 2
    10    3    6 1
    11    6    7 1
    12    7   12 ar
    13    7    8 ar
    14    8    9 ar
    15    8   32 1
    16    9   10 ar
    17    9   33 1
    18   10   11 ar
    19   10   34 1
    20   11   12 ar
    21   11   35 1
    22   12   13 1
    23   13   14 2
    24   13   15 am
    25   15   16 1
    26   15   36 1
    27   16   17 1
    28   16   37 1
    29   16   38 1
    30   17   22 ar
    31   17   18 ar
    32   18   19 ar
    33   18   39 1
    34   19   20 ar
    35   19   40 1
    36   20   21 ar
    37   20   41 1
    38   21   22 ar
    39   21   42 1
    40   22   23 1
    41   23   24 1
    42   24   25 1
    43   24   26 1
    44   24   43 1
    45   25   44 1
    46   25   45 1
    47   25   46 1
    48   26   47 1
    49   26   48 1
    50   26   49 1
@<TRIPOS>MOLECULE
ZINC08970442
   20    21     0     0     0
SMALL
USER_CHARGES
(5E)-5-[(3,5-dibromo-2-hydroxy-phenyl)methylene]-2-thioxo-thiazolidin-4-one
@<TRIPOS>ATOM
      1 C1          1.1835   -0.6739   -0.4598 C.ar      1 <0>         0.0557
      2 C2          2.3720    0.0229   -0.5146 C.ar      1 <0>        -0.2161
      3 C3          2.4132    1.3637   -0.1664 C.ar      1 <0>         0.0020
      4 C4          1.2643    2.0176    0.2394 C.ar      1 <0>        -0.2273
      5 C5          0.0602    1.3342    0.3008 C.ar      1 <0>         0.3246
      6 C6          0.0129   -0.0248   -0.0509 C.ar      1 <0>        -0.2229
      7 C7         -1.2563   -0.7598    0.0105 C.2       1 <0>         0.1033
      8 C8         -1.2848   -2.0253    0.5013 C.2       1 <0>        -0.2646
      9 C9         -0.2172   -2.8033    1.1608 C.2       1 <0>         0.5256
     10 O1          0.8928   -2.3385    1.3436 O.3       1 <0>        -0.4867
     11 N1         -0.5281   -4.0304    1.5433 N.2       1 <0>        -0.6516
     12 C10        -1.7594   -4.5413    1.3393 C.2       1 <0>         0.4051
     13 S1         -2.3497   -6.0926    1.7587 S.2       1 <0>        -0.6338
     14 S2         -2.6275   -3.2050    0.5337 S.3       1 <0>        -0.1868
     15 O2         -1.0693    1.9766    0.6938 O.3       1 <0>        -0.6769
     16 Br1         1.3361    3.8475    0.7107 Br        1 <0>        -0.0952
     17 Br2         3.9529   -0.8548   -1.0678 Br        1 <0>        -0.1033
     18 H1          1.1559   -1.7186   -0.7324 H         1 <0>         0.1125
     19 H2          3.3486    1.9015   -0.2127 H         1 <0>         0.1097
     20 H3         -2.1843   -0.2852   -0.3411 H         1 <0>         0.1265
@<TRIPOS>BOND
     1    1    6 ar
     2    1    2 ar
     3    1   18 1
     4    2    3 ar
     5    2   17 1
     6    3    4 ar
     7    3   19 1
     8    4    5 ar
     9    4   16 1
    10    5    6 ar
    11    5   15 1
    12    6    7 1
    13    7    8 2
    14    7   20 1
    15    8   14 1
    16    8    9 1
    17    9   10 1
    18    9   11 2
    19   11   12 1
    20   12   13 2
    21   12   14 1
@<TRIPOS>MOLECULE
ZINC21814312
   30    31     0     0     0
SMALL
USER_CHARGES
4-chloro-3-[(3-methyl-2-pyridyl)sulfamoyl]benzoic acid
@<TRIPOS>ATOM
      1 C1          0.0537    5.3639   -0.0656 C.3       1 <0>        -0.0661
      2 C2          1.2240    5.6736   -0.9632 C.ar      1 <0>        -0.1906
      3 C3          1.1709    6.7413   -1.8412 C.ar      1 <0>        -0.0590
      4 C4          2.2739    6.9929   -2.6460 C.ar      1 <0>        -0.2810
      5 C5          3.3792    6.1705   -2.5549 C.ar      1 <0>         0.1431
      6 N1          3.4019    5.1589   -1.7081 N.ar      1 <0>        -0.5642
      7 C6          2.3721    4.8895   -0.9203 C.ar      1 <0>         0.4253
      8 N2          2.4389    3.8133   -0.0431 N.2       1 <0>        -1.0272
      9 S1          3.7329    2.7812   -0.0957 S.o2      1 <0>         2.6115
     10 O1          4.9000    3.5908   -0.0548 O.2       1 <0>        -1.0159
     11 O2          3.4787    1.7621    0.8613 O.2       1 <0>        -0.9989
     12 C7          3.7148    2.0034   -1.6766 C.ar      1 <0>        -0.6563
     13 C8          4.7500    2.2196   -2.5617 C.ar      1 <0>         0.0317
     14 C9          4.7344    1.6020   -3.8141 C.ar      1 <0>        -0.1431
     15 C10         3.6690    0.7683   -4.1622 C.ar      1 <0>        -0.0384
     16 C11         2.6401    0.5601   -3.2686 C.ar      1 <0>        -0.1614
     17 C12         2.6639    1.1715   -2.0256 C.ar      1 <0>         0.0490
     18 Cl1         1.3678    0.8991   -0.9033 Cl        1 <0>        -0.0641
     19 C13         5.8399    1.8289   -4.7664 C.2       1 <0>         0.4967
     20 O3          6.7654    2.5541   -4.4610 O.co2     1 <0>        -0.6256
     21 O4          5.8221    1.2317   -5.9738 O.co2     1 <0>        -0.7657
     22 H1         -0.7506    6.0920   -0.2474 H         1 <0>         0.0323
     23 H2          0.3719    5.4240    0.9856 H         1 <0>         0.0567
     24 H3         -0.3144    4.3497   -0.2799 H         1 <0>         0.0588
     25 H4          0.2927    7.3676   -1.8965 H         1 <0>         0.1070
     26 H5          2.2660    7.8212   -3.3390 H         1 <0>         0.1060
     27 H6          4.2379    6.3603   -3.1817 H         1 <0>         0.1319
     28 H7          5.5711    2.8649   -2.2868 H         1 <0>         0.1481
     29 H8          3.6512    0.2881   -5.1294 H         1 <0>         0.1354
     30 H9          1.8158   -0.0843   -3.5365 H         1 <0>         0.1239
@<TRIPOS>BOND
     1    1    2 1
     2    1   22 1
     3    1   23 1
     4    1   24 1
     5    2    7 ar
     6    2    3 ar
     7    3    4 ar
     8    3   25 1
     9    4    5 ar
    10    4   26 1
    11    5    6 ar
    12    5   27 1
    13    6    7 ar
    14    7    8 1
    15    8    9 1
    16    9   10 2
    17    9   11 2
    18    9   12 1
    19   12   17 ar
    20   12   13 ar
    21   13   14 ar
    22   13   28 1
    23   14   15 ar
    24   14   19 1
    25   15   16 ar
    26   15   29 1
    27   16   17 ar
    28   16   30 1
    29   17   18 1
    30   19   20 2
    31   19   21 1
@<TRIPOS>MOLECULE
ZINC38167068
   28    30     0     0     0
SMALL
USER_CHARGES

@<TRIPOS>ATOM
      1 C1          0.5336    1.6975   -1.3658 C.ar      1 <0>        -0.1242
      2 C2          1.5842    2.2234   -0.6413 C.ar      1 <0>        -0.0854
      3 C3          2.4552    1.3743    0.0550 C.ar      1 <0>        -0.0718
      4 C4          2.2572   -0.0077    0.0146 C.ar      1 <0>        -0.0718
      5 C5          1.1913   -0.5311   -0.7207 C.ar      1 <0>        -0.0807
      6 C6          0.3305    0.3329   -1.4112 C.ar      1 <0>        -0.0828
      7 C7          0.9736   -1.9830   -0.7709 C.2       1 <0>         0.0207
      8 C8          1.7059   -2.8084    0.0246 C.2       1 <0>        -0.1833
      9 S1          2.8172   -2.4132    1.3694 S.3       1 <0>        -0.1264
     10 C9          3.2854   -4.0875    1.7822 C.2       1 <0>         0.3712
     11 S2          4.3573   -4.6258    3.0038 S.2       1 <0>        -0.5355
     12 N1          2.5886   -4.8188    0.8987 N.2       1 <0>        -0.6275
     13 C10         1.8009   -4.2799    0.0240 C.2       1 <0>         0.4944
     14 O1          1.1002   -5.0323   -0.8536 O.3       1 <0>        -0.5846
     15 C11         3.5731    1.9361    0.8246 C.2       1 <0>         0.0283
     16 C12         3.5169    3.2216    1.2660 C.2       1 <0>        -0.1817
     17 S3          2.1565    4.3828    1.2393 S.3       1 <0>        -0.1424
     18 C13         3.0077    5.7540    2.0061 C.2       1 <0>         0.3838
     19 S4          2.4061    7.3150    2.3698 S.2       1 <0>        -0.5521
     20 N2          4.2347    5.2577    2.2273 N.2       1 <0>        -0.6252
     21 C14         4.5583    4.0459    1.9064 C.2       1 <0>         0.4924
     22 O2          5.7971    3.5595    2.1437 O.3       1 <0>        -0.5723
     23 H1         -0.1361    2.3578   -1.8966 H         1 <0>         0.1288
     24 H2          1.7358    3.2923   -0.6111 H         1 <0>         0.1419
     25 H3          2.9248   -0.6679    0.5485 H         1 <0>         0.1485
     26 H4         -0.4942   -0.0701   -1.9803 H         1 <0>         0.1291
     27 H5          0.2321   -2.3950   -1.4393 H         1 <0>         0.1524
     28 H6          4.4397    1.3286    1.0399 H         1 <0>         0.1560
@<TRIPOS>BOND
     1    1    6 ar
     2    1    2 ar
     3    1   23 1
     4    2    3 ar
     5    2   24 1
     6    3    4 ar
     7    3   15 1
     8    4    5 ar
     9    4   25 1
    10    5    6 ar
    11    5    7 1
    12    6   26 1
    13    7    8 2
    14    7   27 1
    15    8   13 1
    16    8    9 1
    17    9   10 1
    18   10   11 2
    19   10   12 1
    20   12   13 2
    21   13   14 1
    22   15   16 2
    23   15   28 1
    24   16   21 1
    25   16   17 1
    26   17   18 1
    27   18   19 2
    28   18   20 1
    29   20   21 2
    30   21   22 1
@<TRIPOS>MOLECULE
ZINC49581318
   22    24     0     0     0
SMALL
USER_CHARGES

@<TRIPOS>ATOM
      1 C1         -0.0167    1.3818    0.0096 C.ar      1 <0>        -0.1328
      2 C2          1.1616    2.1011    0.0023 C.ar      1 <0>        -0.1169
      3 C3          2.3812    1.4367   -0.0130 C.ar      1 <0>         0.0838
      4 C4          2.3988    0.0329   -0.0207 C.ar      1 <0>         0.0133
      5 C5          1.2042   -0.6821   -0.0135 C.ar      1 <0>        -0.0874
      6 C6          0.0021   -0.0041    0.0020 C.ar      1 <0>        -0.1003
      7 I1         -1.7997   -1.0730    0.0142 I         1 <0>        -0.0905
      8 C7          3.8208   -0.3595   -0.0364 C.2       1 <0>        -0.3767
      9 C8          4.3387   -1.6716   -0.0491 C.2       1 <0>         0.3440
     10 C9          4.6744   -2.5171    1.1294 C.2       1 <0>         0.4260
     11 O1          4.5449   -2.1840    2.4316 O.3       1 <0>        -0.5427
     12 N1          5.1215   -3.6516    0.6456 N.2       1 <0>        -0.6544
     13 C10         5.0977   -3.5969   -0.6963 C.2       1 <0>         0.4707
     14 S1          5.5968   -4.8667   -1.7304 S.2       1 <0>        -0.6177
     15 N2          4.6233   -2.4125   -1.1164 N.2       1 <0>        -0.5272
     16 C11         4.5535    0.8368   -0.0370 C.2       1 <0>         0.4830
     17 O2          5.8987    0.9301   -0.0493 O.3       1 <0>        -0.6871
     18 N3          3.6939    1.8828   -0.0231 N.pl3     1 <0>        -0.6207
     19 H1         -0.9620    1.9038    0.0260 H         1 <0>         0.1127
     20 H2          1.1350    3.1807    0.0080 H         1 <0>         0.1118
     21 H3          1.2181   -1.7620   -0.0193 H         1 <0>         0.1118
     22 H4          3.9598    2.8156   -0.0209 H         1 <0>         0.3973
@<TRIPOS>BOND
     1    1    6 ar
     2    1    2 ar
     3    1   19 1
     4    2    3 ar
     5    2   20 1
     6    3   18 1
     7    3    4 ar
     8    4    5 ar
     9    4    8 1
    10    5    6 ar
    11    5   21 1
    12    6    7 1
    13    8    9 1
    14    8   16 2
    15    9   15 2
    16    9   10 1
    17   10   11 1
    18   10   12 2
    19   12   13 1
    20   13   14 2
    21   13   15 1
    22   16   17 1
    23   16   18 1
    24   18   22 1
@<TRIPOS>MOLECULE
ZINC59842826
   32    33     0     0     0
SMALL
USER_CHARGES

@<TRIPOS>ATOM
      1 C1         -0.0167    1.3781    0.0096 C.ar      1 <0>        -0.1367
      2 C2          1.1709    2.0855    0.0021 C.ar      1 <0>        -0.1242
      3 C3          2.3773    1.4107   -0.0130 C.ar      1 <0>        -0.1090
      4 C4          2.3960    0.0285   -0.0201 C.ar      1 <0>        -0.0517
      5 C5          1.2084   -0.6789   -0.0117 C.ar      1 <0>        -0.1080
      6 C6          0.0021   -0.0041    0.0020 C.ar      1 <0>        -0.1205
      7 C7          3.7112   -0.7071   -0.0376 C.3       1 <0>        -0.0504
      8 H1          4.5299    0.0124   -0.0426 H         1 <0>         0.0829
      9 C8          3.8172   -1.5918    1.2062 C.3       1 <0>        -0.0735
     10 C9          5.1524   -2.3387    1.1885 C.3       1 <0>        -0.1322
     11 H2          5.9712   -1.6191    1.1835 H         1 <0>         0.0641
     12 C10         5.2323   -3.2108   -0.0660 C.3       1 <0>        -0.1285
     13 H3          4.4136   -3.9304   -0.0610 H         1 <0>         0.0482
     14 C11         5.1263   -2.3262   -1.3098 C.3       1 <0>        -0.0881
     15 C12         3.7911   -1.5793   -1.2921 C.3       1 <0>        -0.0095
     16 H4          2.9723   -2.2988   -1.2871 H         1 <0>         0.0978
     17 Br1         3.6548   -0.4426   -2.8903 Br        1 <0>        -0.2047
     18 C13         6.5474   -3.9465   -0.0835 C.2       1 <0>         0.5262
     19 O1          6.5913   -5.1082   -0.4509 O.co2     1 <0>        -0.7260
     20 O2          7.5676   -3.3799    0.2698 O.co2     1 <0>        -0.6850
     21 C14         5.2569   -3.2100    2.4136 C.2       1 <0>         0.4957
     22 O3          4.3477   -3.2317    3.2256 O.co2     1 <0>        -0.7308
     23 O4          6.2506   -3.8933    2.5927 O.co2     1 <0>        -0.6645
     24 H5         -0.9591    1.9053    0.0259 H         1 <0>         0.1113
     25 H6          1.1563    3.1654    0.0076 H         1 <0>         0.1131
     26 H7          3.3051    1.9634   -0.0196 H         1 <0>         0.1181
     27 H8          1.2231   -1.7588   -0.0176 H         1 <0>         0.1215
     28 H9         -0.9258   -0.5567    0.0082 H         1 <0>         0.1150
     29 H10         3.7603   -0.9704    2.1000 H         1 <0>         0.0608
     30 H11         2.9985   -2.3113    1.2112 H         1 <0>         0.0580
     31 H12         5.9450   -1.6067   -1.3148 H         1 <0>         0.0687
     32 H13         5.1832   -2.9475   -2.2035 H         1 <0>         0.0617
@<TRIPOS>BOND
     1    1    6 ar
     2    1    2 ar
     3    1   24 1
     4    2    3 ar
     5    2   25 1
     6    3    4 ar
     7    3   26 1
     8    4    5 ar
     9    4    7 1
    10    5    6 ar
    11    5   27 1
    12    6   28 1
    13    7    8 1
    14    7   15 1
    15    7    9 1
    16    9   10 1
    17    9   29 1
    18    9   30 1
    19   10   11 1
    20   10   12 1
    21   10   21 1
    22   12   13 1
    23   12   14 1
    24   12   18 1
    25   14   15 1
    26   14   31 1
    27   14   32 1
    28   15   16 1
    29   15   17 1
    30   18   19 2
    31   18   20 1
    32   21   22 2
    33   21   23 1
@<TRIPOS>MOLECULE
ZINC06473955
   57    62     0     0     0
SMALL
USER_CHARGES
chloro-(2-nitrophenyl)sulfanyl-phenyl-BLAH
@<TRIPOS>ATOM
      1 C1          0.8149   -4.5868    1.7702 C.ar      1 <0>        -0.1133
      2 C2          1.5700   -4.4531    0.6201 C.ar      1 <0>        -0.1174
      3 C3          1.7196   -3.2110    0.0320 C.ar      1 <0>        -0.1056
      4 C4          1.1144   -2.1027    0.5943 C.ar      1 <0>        -0.0993
      5 C5          0.3640   -2.2355    1.7476 C.ar      1 <0>        -0.1025
      6 C6          0.2102   -3.4784    2.3328 C.ar      1 <0>        -0.1174
      7 C7          1.2778   -0.7486   -0.0466 C.3       1 <0>         0.2126
      8 H1          1.6096   -0.8593   -1.0790 H         1 <0>         0.0806
      9 C8          2.2726    0.0873    0.7360 C.3       1 <0>        -0.1011
     10 H2          1.8761    0.2975    1.7293 H         1 <0>         0.0976
     11 C9          3.6971   -0.4377    0.8511 C.3       1 <0>        -0.0800
     12 C10         4.5936    0.8272    0.8783 C.3       1 <0>        -0.1458
     13 H3          5.3264    0.7840    0.0725 H         1 <0>         0.1134
     14 C11         3.6441    2.0413    0.6718 C.3       1 <0>        -0.0127
     15 H4          4.1174    2.8004    0.0490 H         1 <0>         0.1173
     16 C12         2.4499    1.4160   -0.0494 C.3       1 <0>        -0.0379
     17 H5          2.7148    1.2010   -1.0846 H         1 <0>         0.0974
     18 C13         1.1515    2.1399    0.0026 C.ar      1 <0>        -0.1603
     19 C14         1.0884    3.5401    0.0392 C.ar      1 <0>         0.0184
     20 C15         2.2576    4.3219    0.0455 C.ar      1 <0>        -0.1352
     21 C16         2.1609    5.6786    0.0805 C.ar      1 <0>        -0.1023
     22 C17         0.9186    6.3095    0.1110 C.ar      1 <0>        -0.1384
     23 C18        -0.2342    5.5859    0.1055 C.ar      1 <0>        -0.0886
     24 C19        -0.1748    4.1827    0.0678 C.ar      1 <0>        -0.0947
     25 C20        -1.3450    3.4040    0.0573 C.ar      1 <0>        -0.0590
     26 C21        -1.2588    2.0501    0.0310 C.ar      1 <0>        -0.1690
     27 C22        -0.0169    1.3964    0.0097 C.ar      1 <0>         0.2332
     28 N1          0.0021   -0.0041    0.0020 N.pl3     1 <0>        -0.7410
     29 Cl1         3.1408    2.7359    2.2577 Cl        1 <0>        -0.1249
     30 S1          5.4363    0.9590    2.4793 S.3       1 <0>         0.0637
     31 C23         6.5075    2.3443    2.2844 C.ar      1 <0>        -0.0392
     32 C24         6.5376    3.0377    1.0802 C.ar      1 <0>        -0.1459
     33 C25         7.3783    4.1227    0.9311 C.ar      1 <0>        -0.0419
     34 C26         8.1903    4.5195    1.9782 C.ar      1 <0>        -0.1305
     35 C27         8.1631    3.8321    3.1777 C.ar      1 <0>        -0.0305
     36 C28         7.3202    2.7496    3.3362 C.ar      1 <0>        -0.0414
     37 N2          7.2873    2.0182    4.6224 N.pl3     1 <0>         0.0319
     38 O1          7.9999    2.3741    5.5438 O.2       1 <0>        -0.1657
     39 O2          6.5475    1.0603    4.7595 O.3       1 <0>        -0.1457
     40 H6          0.6978   -5.5573    2.2295 H         1 <0>         0.1233
     41 H7          2.0428   -5.3190    0.1807 H         1 <0>         0.1245
     42 H8          2.3095   -3.1066   -0.8666 H         1 <0>         0.1229
     43 H9         -0.1051   -1.3688    2.1894 H         1 <0>         0.1227
     44 H10        -0.3795   -3.5828    3.2316 H         1 <0>         0.1236
     45 H11         3.8173   -1.0067    1.7730 H         1 <0>         0.0875
     46 H12         3.9428   -1.0572   -0.0115 H         1 <0>         0.0885
     47 H13         3.2276    3.8475    0.0229 H         1 <0>         0.1263
     48 H14         3.0608    6.2758    0.0851 H         1 <0>         0.1163
     49 H15         0.8699    7.3880    0.1397 H         1 <0>         0.1183
     50 H16        -1.1901    6.0879    0.1297 H         1 <0>         0.1226
     51 H17        -2.3127    3.8833    0.0721 H         1 <0>         0.1278
     52 H18        -2.1652    1.4629    0.0236 H         1 <0>         0.1224
     53 H19        -0.8353   -0.4930    0.0287 H         1 <0>         0.4022
     54 H20         5.9039    2.7284    0.2622 H         1 <0>         0.1406
     55 H21         7.4022    4.6619   -0.0043 H         1 <0>         0.1452
     56 H22         8.8470    5.3686    1.8588 H         1 <0>         0.1493
     57 H23         8.7983    4.1450    3.9932 H         1 <0>         0.1569
@<TRIPOS>BOND
     1    1    6 ar
     2    1    2 ar
     3    1   40 1
     4    2    3 ar
     5    2   41 1
     6    3    4 ar
     7    3   42 1
     8    4    5 ar
     9    4    7 1
    10    5    6 ar
    11    5   43 1
    12    6   44 1
    13    7    8 1
    14    7   28 1
    15    7    9 1
    16    9   10 1
    17    9   16 1
    18    9   11 1
    19   11   12 1
    20   11   45 1
    21   11   46 1
    22   12   13 1
    23   12   14 1
    24   12   30 1
    25   14   15 1
    26   14   16 1
    27   14   29 1
    28   16   17 1
    29   16   18 1
    30   18   27 ar
    31   18   19 ar
    32   19   24 ar
    33   19   20 ar
    34   20   21 ar
    35   20   47 1
    36   21   22 ar
    37   21   48 1
    38   22   23 ar
    39   22   49 1
    40   23   24 ar
    41   23   50 1
    42   24   25 ar
    43   25   26 ar
    44   25   51 1
    45   26   27 ar
    46   26   52 1
    47   27   28 1
    48   28   53 1
    49   30   31 1
    50   31   36 ar
    51   31   32 ar
    52   32   33 ar
    53   32   54 1
    54   33   34 ar
    55   33   55 1
    56   34   35 ar
    57   34   56 1
    58   35   36 ar
    59   35   57 1
    60   36   37 1
    61   37   38 2
    62   37   39 1
@<TRIPOS>MOLECULE
ZINC03309797
   48    52     0     0     0
SMALL
USER_CHARGES
trichloro-methyl-(3-methylsulfanylphenyl)-phenyl-BLAH
@<TRIPOS>ATOM
      1 C1         -1.2095   -0.9002    0.0083 C.3       1 <0>        -0.0778
      2 C2          0.0021   -0.0041    0.0020 C.2       1 <0>         0.1369
      3 C3          1.3229   -0.4283   -0.0129 C.2       1 <0>        -0.3144
      4 C4          2.1370    0.6930   -0.0146 C.2       1 <0>         0.3328
      5 N1          1.3033    1.7788   -0.0008 N.pl3     1 <0>        -0.3036
      6 N2         -0.0157    1.3069    0.0092 N.2       1 <0>        -0.2768
      7 C5          1.6986    3.1221    0.0019 C.ar      1 <0>         0.1513
      8 C6          2.8431    3.5093    0.6868 C.ar      1 <0>        -0.1074
      9 C7          3.2331    4.8342    0.6832 C.ar      1 <0>        -0.1015
     10 C8          2.4793    5.7766    0.0081 C.ar      1 <0>        -0.1190
     11 C9          1.3363    5.3952   -0.6705 C.ar      1 <0>        -0.1052
     12 C10         0.9439    4.0710   -0.6755 C.ar      1 <0>        -0.1098
     13 N3          3.4803    0.5685   -0.0273 N.2       1 <0>        -0.5508
     14 C11         4.1252   -0.5870   -0.0397 C.2       1 <0>         0.4600
     15 C12         5.5376   -0.5861   -0.0537 C.2       1 <0>        -0.0664
     16 C13         6.2105   -1.7699   -0.0656 C.2       1 <0>        -0.0019
     17 C14         5.4973   -2.9784   -0.0643 C.2       1 <0>        -0.1176
     18 C15         4.1420   -2.9659   -0.0517 C.2       1 <0>         0.2212
     19 N4          3.4614   -1.7885   -0.0397 N.pl3     1 <0>        -0.4778
     20 C16         1.9886   -1.7852   -0.0261 C.3       1 <0>         0.2597
     21 H1          1.6565   -2.3344    0.8550 H         1 <0>         0.1023
     22 C17         1.5069   -2.5318   -1.2433 C.ar      1 <0>        -0.0890
     23 C18         2.0629   -2.2660   -2.4816 C.ar      1 <0>        -0.1035
     24 C19         1.6240   -2.9487   -3.6013 C.ar      1 <0>        -0.0899
     25 C20         0.6283   -3.8988   -3.4866 C.ar      1 <0>        -0.1230
     26 C21         0.0674   -4.1684   -2.2442 C.ar      1 <0>        -0.0766
     27 C22         0.5151   -3.4843   -1.1201 C.ar      1 <0>        -0.0764
     28 S1         -1.2028   -5.3802   -2.0930 S.3       1 <0>        -0.1118
     29 C23        -1.4330   -5.9883   -3.7864 C.3       1 <0>        -0.1451
     30 Cl1         3.2675   -4.4655   -0.0513 Cl        1 <0>         0.0303
     31 Cl2         6.3511   -4.4899   -0.0794 Cl        1 <0>        -0.0066
     32 Cl3         6.4103    0.9146   -0.0546 Cl        1 <0>         0.0036
     33 H2         -1.5113   -1.1103   -1.0178 H         1 <0>         0.0830
     34 H3         -0.9676   -1.8347    0.5146 H         1 <0>         0.0773
     35 H4         -2.0260   -0.4036    0.5327 H         1 <0>         0.0804
     36 H5          3.4296    2.7745    1.2183 H         1 <0>         0.1350
     37 H6          4.1255    5.1352    1.2119 H         1 <0>         0.1319
     38 H7          2.7840    6.8127    0.0105 H         1 <0>         0.1288
     39 H8          0.7496    6.1336   -1.1968 H         1 <0>         0.1317
     40 H9          0.0514    3.7737   -1.2059 H         1 <0>         0.1314
     41 H10         7.2904   -1.7786   -0.0764 H         1 <0>         0.1726
     42 H11         2.8420   -1.5238   -2.5742 H         1 <0>         0.1133
     43 H12         2.0607   -2.7388   -4.5665 H         1 <0>         0.1286
     44 H13         0.2863   -4.4318   -4.3614 H         1 <0>         0.1266
     45 H14         0.0847   -3.6947   -0.1522 H         1 <0>         0.1314
     46 H15        -1.7289   -5.1617   -4.4323 H         1 <0>         0.0852
     47 H16        -0.4983   -6.4162   -4.1490 H         1 <0>         0.0848
     48 H17        -2.2101   -6.7526   -3.7955 H         1 <0>         0.1115
@<TRIPOS>BOND
     1    1    2 1
     2    1   33 1
     3    1   34 1
     4    1   35 1
     5    2    6 2
     6    2    3 1
     7    3   20 1
     8    3    4 2
     9    4    5 1
    10    4   13 1
    11    5    6 1
    12    5    7 1
    13    7   12 ar
    14    7    8 ar
    15    8    9 ar
    16    8   36 1
    17    9   10 ar
    18    9   37 1
    19   10   11 ar
    20   10   38 1
    21   11   12 ar
    22   11   39 1
    23   12   40 1
    24   13   14 2
    25   14   19 1
    26   14   15 1
    27   15   16 2
    28   15   32 1
    29   16   17 1
    30   16   41 1
    31   17   18 2
    32   17   31 1
    33   18   19 1
    34   18   30 1
    35   19   20 1
    36   20   21 1
    37   20   22 1
    38   22   27 ar
    39   22   23 ar
    40   23   24 ar
    41   23   42 1
    42   24   25 ar
    43   24   43 1
    44   25   26 ar
    45   25   44 1
    46   26   27 ar
    47   26   28 1
    48   27   45 1
    49   28   29 1
    50   29   46 1
    51   29   47 1
    52   29   48 1
@<TRIPOS>MOLECULE
ZINC21222685
   63    67     0     0     0
SMALL
USER_CHARGES
(6S,9R)-6-(3-bromo-4-methyl-phenyl)-9-(4-isopropoxyphenyl)-5,6,8,9,10,11-hexahydrobenzo[c][1,5]benzodiazepin-7-one
@<TRIPOS>ATOM
      1 C1          2.4652    3.9183   -0.0007 C.3       1 <0>        -0.1224
      2 C2          1.1687    3.1501    0.0078 C.ar      1 <0>        -0.0588
      3 C3          1.1261    1.8604   -0.4880 C.ar      1 <0>        -0.1206
      4 C4         -0.0630    1.1559   -0.4808 C.ar      1 <0>        -0.0707
      5 C5         -1.2116    1.7425    0.0176 C.ar      1 <0>        -0.0834
      6 C6         -1.1688    3.0299    0.5182 C.ar      1 <0>        -0.0720
      7 C7          0.0212    3.7355    0.5111 C.ar      1 <0>        -0.0965
      8 Br1         0.0786    5.4999    1.1889 Br        1 <0>        -0.0550
      9 C8         -2.5091    0.9761    0.0195 C.3       1 <0>         0.2878
     10 H1         -2.4493    0.0016   -0.4872 H         1 <0>         0.0937
     11 C9         -2.9132    0.7241    1.4519 C.2       1 <0>        -0.3087
     12 C10        -3.9473    1.2988    2.0930 C.2       1 <0>         0.2740
     13 C11        -4.2531    0.9441    3.5382 C.3       1 <0>        -0.1043
     14 C12        -2.9599    0.6088    4.2789 C.3       1 <0>        -0.0300
     15 H2         -2.2859    1.4779    4.3005 H         1 <0>         0.0863
     16 C13        -2.3059   -0.5787    3.5623 C.3       1 <0>        -0.1597
     17 C14        -2.0891   -0.2076    2.1259 C.2       1 <0>         0.4010
     18 O1         -1.1729   -0.7260    1.5182 O.2       1 <0>        -0.4741
     19 C15        -3.2705    0.2362    5.7057 C.ar      1 <0>        -0.1207
     20 C16        -4.0978   -0.8387    5.9738 C.ar      1 <0>        -0.0726
     21 C17        -4.3795   -1.1857    7.2810 C.ar      1 <0>        -0.1511
     22 C18        -3.8403   -0.4480    8.3249 C.ar      1 <0>         0.1351
     23 C19        -3.0151    0.6336    8.0531 C.ar      1 <0>        -0.2090
     24 C20        -2.7323    0.9734    6.7443 C.ar      1 <0>        -0.0700
     25 O2         -4.1204   -0.7840    9.6116 O.3       1 <0>        -0.3160
     26 C21        -3.6258    0.0860   10.6316 C.3       1 <0>         0.0768
     27 C22        -4.4965   -0.0480   11.8826 C.3       1 <0>        -0.1510
     28 C23        -2.1833   -0.2946   10.9712 C.3       1 <0>        -0.1822
     29 N1         -4.7958    2.1994    1.5351 N.pl3     1 <0>        -0.6972
     30 C24        -4.4068    3.2956    0.7740 C.ar      1 <0>         0.1123
     31 C25        -4.6755    4.5969    1.1606 C.ar      1 <0>        -0.1152
     32 C26        -4.3658    5.6375    0.3010 C.ar      1 <0>        -0.1209
     33 C27        -3.7932    5.3779   -0.9308 C.ar      1 <0>        -0.1044
     34 C28        -3.5034    4.0783   -1.3090 C.ar      1 <0>        -0.1285
     35 C29        -3.7953    3.0364   -0.4434 C.ar      1 <0>         0.1709
     36 N2         -3.4795    1.7159   -0.7589 N.pl3     1 <0>        -0.7813
     37 H3          3.2590    3.2930   -0.4352 H         1 <0>         0.0697
     38 H4          2.7363    4.1914    1.0298 H         1 <0>         0.0753
     39 H5          2.3465    4.8312   -0.6029 H         1 <0>         0.0755
     40 H6          2.0222    1.4031   -0.8808 H         1 <0>         0.1286
     41 H7         -0.0960    0.1484   -0.8685 H         1 <0>         0.1279
     42 H8         -2.0651    3.4866    0.9112 H         1 <0>         0.1299
     43 H9         -4.7407    1.7986    4.0302 H         1 <0>         0.0906
     44 H10        -4.9235    0.0725    3.5679 H         1 <0>         0.0934
     45 H11        -1.3422   -0.8095    4.0398 H         1 <0>         0.0968
     46 H12        -2.9668   -1.4556    3.6276 H         1 <0>         0.1021
     47 H13        -4.5208   -1.4100    5.1608 H         1 <0>         0.1284
     48 H14        -5.0219   -2.0283    7.4900 H         1 <0>         0.1306
     49 H15        -2.5939    1.2092    8.8640 H         1 <0>         0.1303
     50 H16        -2.0899    1.8152    6.5322 H         1 <0>         0.1242
     51 H17        -3.6824    1.1017   10.2130 H         1 <0>         0.0737
     52 H18        -4.1157    0.6217   12.6678 H         1 <0>         0.0791
     53 H19        -4.4661   -1.0876   12.2409 H         1 <0>         0.0693
     54 H20        -5.5336    0.2255   11.6385 H         1 <0>         0.0658
     55 H21        -1.8026    0.3751   11.7564 H         1 <0>         0.0741
     56 H22        -1.5573   -0.1984   10.0718 H         1 <0>         0.0635
     57 H23        -2.1530   -1.3342   11.3295 H         1 <0>         0.0700
     58 H24        -5.8818    2.0897    1.6716 H         1 <0>         0.4269
     59 H25        -5.1222    4.7989    2.1229 H         1 <0>         0.1250
     60 H26        -4.5727    6.6563    0.5937 H         1 <0>         0.1244
     61 H27        -3.5703    6.1943   -1.6018 H         1 <0>         0.1225
     62 H28        -3.0541    3.8781   -2.2704 H         1 <0>         0.1229
     63 H29        -3.9797    1.2367   -1.6134 H         1 <0>         0.4177
@<TRIPOS>BOND
     1    1    2 1
     2    1   37 1
     3    1   38 1
     4    1   39 1
     5    2    7 ar
     6    2    3 ar
     7    3    4 ar
     8    3   40 1
     9    4    5 ar
    10    4   41 1
    11    5    6 ar
    12    5    9 1
    13    6    7 ar
    14    6   42 1
    15    7    8 1
    16    9   10 1
    17    9   36 1
    18    9   11 1
    19   11   17 1
    20   11   12 2
    21   12   13 1
    22   12   29 1
    23   13   14 1
    24   13   43 1
    25   13   44 1
    26   14   15 1
    27   14   16 1
    28   14   19 1
    29   16   17 1
    30   16   45 1
    31   16   46 1
    32   17   18 2
    33   19   24 ar
    34   19   20 ar
    35   20   21 ar
    36   20   47 1
    37   21   22 ar
    38   21   48 1
    39   22   23 ar
    40   22   25 1
    41   23   24 ar
    42   23   49 1
    43   24   50 1
    44   25   26 1
    45   26   27 1
    46   26   28 1
    47   26   51 1
    48   27   52 1
    49   27   53 1
    50   27   54 1
    51   28   55 1
    52   28   56 1
    53   28   57 1
    54   29   30 1
    55   29   58 1
    56   30   35 ar
    57   30   31 ar
    58   31   32 ar
    59   31   59 1
    60   32   33 ar
    61   32   60 1
    62   33   34 ar
    63   33   61 1
    64   34   35 ar
    65   34   62 1
    66   35   36 1
    67   36   63 1
@<TRIPOS>MOLECULE
ZINC39879140
   57    61     0     0     0
SMALL
USER_CHARGES

@<TRIPOS>ATOM
      1 C1         -0.0184    1.5028    0.0103 C.3       1 <0>        -0.1163
      2 C2          0.0021   -0.0041    0.0020 C.ar      1 <0>        -0.1054
      3 C3          0.0058   -0.6891   -1.2051 C.ar      1 <0>        -0.0537
      4 C4          0.0220   -2.0654   -1.2351 C.ar      1 <0>        -0.1284
      5 C5          0.0352   -2.7901   -0.0433 C.ar      1 <0>         0.1340
      6 C6          0.0369   -2.0861    1.1720 C.ar      1 <0>        -0.2057
      7 C7          0.0226   -0.6916    1.1835 C.ar      1 <0>        -0.0336
      8 C8          0.0669   -2.8486    2.4457 C.2       1 <0>         0.4583
      9 O1         -0.0978   -2.3318    3.5367 O.2       1 <0>        -0.4286
     10 C9          0.3137   -4.2828    2.2655 C.2       1 <0>        -0.2409
     11 C10         0.2945   -4.8501    1.0226 C.2       1 <0>         0.0918
     12 O2          0.0437   -4.1416   -0.0959 O.3       1 <0>        -0.1785
     13 C11         0.5833   -6.2871    1.1661 C.2       1 <0>         0.5693
     14 O3          0.6447   -7.0797    0.2471 O.2       1 <0>        -0.4634
     15 N1          0.7705   -6.5952    2.4657 N.am      1 <0>        -0.5336
     16 C12         0.6136   -5.3617    3.2537 C.3       1 <0>         0.2274
     17 H1         -0.2122   -5.4674    3.9572 H         1 <0>         0.1296
     18 C13         1.8900   -5.0504    3.9919 C.ar      1 <0>        -0.1110
     19 C14         3.1117   -5.2789    3.3868 C.ar      1 <0>        -0.0913
     20 C15         4.2825   -4.9934    4.0639 C.ar      1 <0>        -0.1118
     21 C16         4.2317   -4.4789    5.3460 C.ar      1 <0>        -0.0533
     22 C17         3.0099   -4.2495    5.9507 C.ar      1 <0>        -0.1173
     23 C18         1.8391   -4.5311    5.2719 C.ar      1 <0>        -0.0858
     24 C19         5.5081   -4.1685    6.0845 C.3       1 <0>        -0.0322
     25 C20         6.3110   -3.1285    5.3005 C.3       1 <0>        -0.1398
     26 C21         5.1733   -3.6151    7.4711 C.3       1 <0>        -0.1458
     27 C22         6.3358   -5.4468    6.2318 C.3       1 <0>        -0.1391
     28 C23         1.0625   -7.8636    2.9751 C.ar      1 <0>         0.1801
     29 C24         1.2257   -8.0437    4.3431 C.ar      1 <0>        -0.1268
     30 C25         1.5142   -9.2979    4.8436 C.ar      1 <0>        -0.0826
     31 C26         1.6407  -10.3746    3.9851 C.ar      1 <0>        -0.1073
     32 C27         1.4793  -10.1992    2.6222 C.ar      1 <0>        -0.0627
     33 C28         1.1844   -8.9475    2.1155 C.ar      1 <0>        -0.1249
     34 Br1         1.6540  -11.6747    1.4525 Br        1 <0>        -0.0373
     35 H2          1.0042    1.8801    0.0026 H         1 <0>         0.0764
     36 H3         -0.5455    1.8639   -0.8728 H         1 <0>         0.0730
     37 H4         -0.5286    1.8543    0.9071 H         1 <0>         0.0723
     38 H5         -0.0039   -0.1355   -2.1324 H         1 <0>         0.1448
     39 H6          0.0242   -2.5844   -2.1822 H         1 <0>         0.1492
     40 H7          0.0234   -0.1571    2.1220 H         1 <0>         0.1454
     41 H8          3.1515   -5.6809    2.3852 H         1 <0>         0.1133
     42 H9          5.2370   -5.1726    3.5915 H         1 <0>         0.1238
     43 H10         2.9702   -3.8479    6.9524 H         1 <0>         0.1326
     44 H11         0.8845   -4.3484    5.7430 H         1 <0>         0.1292
     45 H12         5.7213   -2.2179    5.1956 H         1 <0>         0.0569
     46 H13         7.2342   -2.9041    5.8347 H         1 <0>         0.0608
     47 H14         6.5495   -3.5228    4.3127 H         1 <0>         0.0566
     48 H15         4.6013   -4.3560    8.0296 H         1 <0>         0.0598
     49 H16         6.0966   -3.3906    8.0053 H         1 <0>         0.0602
     50 H17         4.5836   -2.7044    7.3661 H         1 <0>         0.0597
     51 H18         6.5743   -5.8411    5.2440 H         1 <0>         0.0568
     52 H19         7.2590   -5.2223    6.7660 H         1 <0>         0.0605
     53 H20         5.7638   -6.1877    6.7904 H         1 <0>         0.0574
     54 H21         1.1274   -7.2034    5.0144 H         1 <0>         0.1365
     55 H22         1.6414   -9.4380    5.9069 H         1 <0>         0.1407
     56 H23         1.8663  -11.3545    4.3793 H         1 <0>         0.1377
     57 H24         1.0534   -8.8118    1.0522 H         1 <0>         0.1630
@<TRIPOS>BOND
     1    1    2 1
     2    1   35 1
     3    1   36 1
     4    1   37 1
     5    2    7 ar
     6    2    3 ar
     7    3    4 ar
     8    3   38 1
     9    4    5 ar
    10    4   39 1
    11    5   12 1
    12    5    6 ar
    13    6    7 ar
    14    6    8 1
    15    7   40 1
    16    8    9 2
    17    8   10 1
    18   10   16 1
    19   10   11 2
    20   11   12 1
    21   11   13 1
    22   13   14 2
    23   13   15 am
    24   15   16 1
    25   15   28 1
    26   16   17 1
    27   16   18 1
    28   18   23 ar
    29   18   19 ar
    30   19   20 ar
    31   19   41 1
    32   20   21 ar
    33   20   42 1
    34   21   22 ar
    35   21   24 1
    36   22   23 ar
    37   22   43 1
    38   23   44 1
    39   24   25 1
    40   24   26 1
    41   24   27 1
    42   25   45 1
    43   25   46 1
    44   25   47 1
    45   26   48 1
    46   26   49 1
    47   26   50 1
    48   27   51 1
    49   27   52 1
    50   27   53 1
    51   28   33 ar
    52   28   29 ar
    53   29   30 ar
    54   29   54 1
    55   30   31 ar
    56   30   55 1
    57   31   32 ar
    58   31   56 1
    59   32   33 ar
    60   32   34 1
    61   33   57 1
@<TRIPOS>MOLECULE
ZINC59124940
   47    51     0     0     0
SMALL
USER_CHARGES

@<TRIPOS>ATOM
      1 C1          1.0935    1.3131    0.5201 C.3       1 <0>         0.0326
      2 O1          0.8556   -0.0902    0.3936 O.3       1 <0>        -0.3287
      3 C2          1.1561   -0.6579   -0.7925 C.2       1 <0>         0.5726
      4 O2          1.6079    0.0211   -1.6945 O.2       1 <0>        -0.4723
      5 C3          0.9378   -2.0951   -0.9946 C.2       1 <0>         0.0426
      6 N1          0.4589   -2.9664   -0.1436 N.2       1 <0>        -0.1566
      7 N2          0.2970   -4.3079   -0.4523 N.pl3     1 <0>        -0.4092
      8 C4          0.7033   -4.6704   -1.7996 C.3       1 <0>         0.2417
      9 S1          1.2568   -3.0643   -2.4648 S.3       1 <0>        -0.0235
     10 C5         -0.3743   -5.2912   -2.6493 C.ar      1 <0>        -0.1095
     11 C6         -1.4910   -4.6199   -3.1581 C.ar      1 <0>        -0.0721
     12 C7         -2.4258   -5.2622   -3.9341 C.ar      1 <0>        -0.1081
     13 C8         -2.2653   -6.6046   -4.2237 C.ar      1 <0>        -0.0896
     14 C9         -1.1739   -7.2764   -3.7255 C.ar      1 <0>        -0.0954
     15 C10        -0.2205   -6.6346   -2.9323 C.ar      1 <0>        -0.0630
     16 C11         1.0057   -7.3307   -2.3335 C.3       1 <0>         0.0339
     17 H1          0.7287   -7.9307   -1.4667 H         1 <0>         0.1282
     18 S2          2.0502   -5.8967   -1.8353 S.3       1 <0>        -0.1790
     19 C12         1.7053   -8.1741   -3.3680 C.ar      1 <0>        -0.0631
     20 C13         2.2137   -7.5854   -4.5108 C.ar      1 <0>        -0.0827
     21 C14         2.8558   -8.3585   -5.4597 C.ar      1 <0>        -0.0883
     22 C15         2.9896   -9.7215   -5.2657 C.ar      1 <0>        -0.0814
     23 C16         2.4808  -10.3102   -4.1220 C.ar      1 <0>        -0.0897
     24 C17         1.8435   -9.5355   -3.1712 C.ar      1 <0>        -0.0947
     25 Br1         3.8675  -10.7799   -6.5639 Br        1 <0>        -0.0444
     26 C18        -0.2135   -5.2348    0.4565 C.ar      1 <0>         0.1730
     27 C19         0.3036   -5.3049    1.7449 C.ar      1 <0>        -0.1026
     28 C20        -0.2047   -6.2233    2.6419 C.ar      1 <0>        -0.1014
     29 C21        -1.2271   -7.0728    2.2599 C.ar      1 <0>        -0.1159
     30 C22        -1.7442   -7.0060    0.9789 C.ar      1 <0>        -0.1015
     31 C23        -1.2447   -6.0866    0.0779 C.ar      1 <0>        -0.1288
     32 H2          2.1515    1.5184    0.3568 H         1 <0>         0.0679
     33 H3          0.5007    1.8503   -0.2203 H         1 <0>         0.0677
     34 H4          0.8099    1.6411    1.5201 H         1 <0>         0.1117
     35 H5         -1.6220   -3.5712   -2.9353 H         1 <0>         0.1265
     36 H6         -3.2801   -4.7222   -4.3149 H         1 <0>         0.1378
     37 H7         -2.9905   -7.1207   -4.8352 H         1 <0>         0.1377
     38 H8         -1.0512   -8.3250   -3.9529 H         1 <0>         0.1308
     39 H9          2.1088   -6.5212   -4.6624 H         1 <0>         0.1353
     40 H10         3.2526   -7.8985   -6.3527 H         1 <0>         0.1372
     41 H11         2.5852  -11.3744   -3.9701 H         1 <0>         0.1377
     42 H12         1.4498   -9.9943   -2.2763 H         1 <0>         0.1355
     43 H13         1.1022   -4.6421    2.0437 H         1 <0>         0.1298
     44 H14         0.1968   -6.2786    3.6429 H         1 <0>         0.1324
     45 H15        -1.6224   -7.7904    2.9636 H         1 <0>         0.1294
     46 H16        -2.5426   -7.6710    0.6842 H         1 <0>         0.1307
     47 H17        -1.6517   -6.0323   -0.9209 H         1 <0>         0.1290
@<TRIPOS>BOND
     1    1    2 1
     2    1   32 1
     3    1   33 1
     4    1   34 1
     5    2    3 1
     6    3    4 2
     7    3    5 1
     8    5    9 1
     9    5    6 2
    10    6    7 1
    11    7    8 1
    12    7   26 1
    13    8   18 1
    14    8    9 1
    15    8   10 1
    16   10   15 ar
    17   10   11 ar
    18   11   12 ar
    19   11   35 1
    20   12   13 ar
    21   12   36 1
    22   13   14 ar
    23   13   37 1
    24   14   15 ar
    25   14   38 1
    26   15   16 1
    27   16   17 1
    28   16   18 1
    29   16   19 1
    30   19   24 ar
    31   19   20 ar
    32   20   21 ar
    33   20   39 1
    34   21   22 ar
    35   21   40 1
    36   22   23 ar
    37   22   25 1
    38   23   24 ar
    39   23   41 1
    40   24   42 1
    41   26   31 ar
    42   26   27 ar
    43   27   28 ar
    44   27   43 1
    45   28   29 ar
    46   28   44 1
    47   29   30 ar
    48   29   45 1
    49   30   31 ar
    50   30   46 1
    51   31   47 1
@<TRIPOS>MOLECULE
ZINC04347859
   32    34     0     0     0
SMALL
USER_CHARGES
3-(1-naphthyl)-2-(2-pyridyl)prop-2-enenitrile
@<TRIPOS>ATOM
      1 C1          5.1177    9.3416   -0.3946 C.ar      1 <0>        -0.1179
      2 C2          5.0648    7.9525   -0.3129 C.ar      1 <0>        -0.1045
      3 C3          3.8707    7.3020   -0.2077 C.ar      1 <0>        -0.1120
      4 C4          2.6824    8.0391   -0.1744 C.ar      1 <0>        -0.0253
      5 C5          2.7316    9.4516   -0.2643 C.ar      1 <0>        -0.0578
      6 C6          3.9797   10.0892   -0.3719 C.ar      1 <0>        -0.0998
      7 C7          1.5352   10.1880   -0.2379 C.ar      1 <0>        -0.0810
      8 C8          0.3318    9.5580   -0.1342 C.ar      1 <0>        -0.1221
      9 C9          0.2328    8.1776   -0.0504 C.ar      1 <0>        -0.0806
     10 C10         1.3780    7.3832   -0.0697 C.ar      1 <0>        -0.0882
     11 C11         1.2787    5.9255    0.0189 C.2       1 <0>         0.0306
     12 C12         0.2047    5.2810   -0.5211 C.2       1 <0>        -0.0382
     13 C13        -0.7507    6.0101   -1.2997 C.1       1 <0>         0.2532
     14 N1         -1.5086    6.5885   -1.9174 N.1       1 <0>        -0.4074
     15 C14         0.0268    3.8285   -0.3023 C.ar      1 <0>         0.1773
     16 C15        -1.0742    3.1745   -0.8569 C.ar      1 <0>        -0.1596
     17 C16        -1.2232    1.8152   -0.6485 C.ar      1 <0>        -0.0670
     18 C17        -0.2729    1.1537    0.1179 C.ar      1 <0>        -0.1709
     19 C18         0.7932    1.8636    0.6384 C.ar      1 <0>         0.1111
     20 N2          0.9159    3.1572    0.4206 N.ar      1 <0>        -0.4777
     21 H1          6.0756    9.8335   -0.4770 H         1 <0>         0.1261
     22 H2          5.9819    7.3824   -0.3327 H         1 <0>         0.1274
     23 H3          3.8431    6.2242   -0.1451 H         1 <0>         0.1317
     24 H4          4.0358   11.1658   -0.4357 H         1 <0>         0.1301
     25 H5          1.5700   11.2656   -0.3008 H         1 <0>         0.1308
     26 H6         -0.5709   10.1507   -0.1170 H         1 <0>         0.1278
     27 H7         -0.7394    7.7142    0.0308 H         1 <0>         0.1262
     28 H8          2.0559    5.3603    0.5118 H         1 <0>         0.1635
     29 H9         -1.7971    3.7210   -1.4444 H         1 <0>         0.1323
     30 H10        -2.0624    1.2810   -1.0689 H         1 <0>         0.1390
     31 H11        -0.3633    0.0934    0.3019 H         1 <0>         0.1395
     32 H12         1.5359    1.3506    1.2313 H         1 <0>         0.1635
@<TRIPOS>BOND
     1    1    6 ar
     2    1    2 ar
     3    1   21 1
     4    2    3 ar
     5    2   22 1
     6    3    4 ar
     7    3   23 1
     8    4   10 ar
     9    4    5 ar
    10    5    6 ar
    11    5    7 ar
    12    6   24 1
    13    7    8 ar
    14    7   25 1
    15    8    9 ar
    16    8   26 1
    17    9   10 ar
    18    9   27 1
    19   10   11 1
    20   11   12 2
    21   11   28 1
    22   12   13 1
    23   12   15 1
    24   13   14 3
    25   15   20 ar
    26   15   16 ar
    27   16   17 ar
    28   16   29 1
    29   17   18 ar
    30   17   30 1
    31   18   19 ar
    32   18   31 1
    33   19   20 ar
    34   19   32 1
@<TRIPOS>MOLECULE
ZINC01729327
   28    31     0     0     0
SMALL
USER_CHARGES
BLAH
@<TRIPOS>ATOM
      1 C1         -0.0126    1.0758    0.0080 C.ar      1 <0>        -0.1092
      2 C2          1.1910    1.7784    0.0002 C.ar      1 <0>        -0.1136
      3 C3          1.2071    3.1391    0.0076 C.ar      1 <0>        -0.1058
      4 C4         -0.0069    3.8499    0.0248 C.ar      1 <0>        -0.0492
      5 C5         -1.2312    3.1349    0.0314 C.ar      1 <0>        -0.0398
      6 C6         -1.2063    1.7298    0.0172 C.ar      1 <0>        -0.1073
      7 C7         -2.4514    3.8351    0.0473 C.ar      1 <0>        -0.1036
      8 C8         -2.4510    5.1939    0.0387 C.ar      1 <0>        -0.0921
      9 C9         -1.2475    5.9094    0.0135 C.ar      1 <0>        -0.0188
     10 C10        -0.0213    5.2539    0.0437 C.ar      1 <0>        -0.0344
     11 C11         1.2702    6.0168    0.1431 C.3       1 <0>        -0.0880
     12 C12         1.2352    7.3341   -0.6326 C.3       1 <0>        -0.0406
     13 C13        -0.0524    8.0460   -0.3504 C.2       1 <0>        -0.2024
     14 C14        -1.2216    7.3809   -0.0576 C.2       1 <0>         0.0092
     15 O1         -2.1500    8.3142    0.1140 O.3       1 <0>         0.1192
     16 N1         -1.6800    9.4287   -0.0218 N.2       1 <0>        -0.3689
     17 C15        -0.4018    9.3917   -0.3079 C.2       1 <0>         0.0111
     18 H1          0.0021   -0.0041    0.0020 H         1 <0>         0.1262
     19 H2          2.1243    1.2352   -0.0122 H         1 <0>         0.1265
     20 H3          2.1471    3.6708    0.0000 H         1 <0>         0.1322
     21 H4         -2.1305    1.1711    0.0177 H         1 <0>         0.1307
     22 H5         -3.3859    3.2941    0.0658 H         1 <0>         0.1358
     23 H6         -3.3896    5.7281    0.0518 H         1 <0>         0.1339
     24 H7          1.4731    6.2311    1.1924 H         1 <0>         0.0874
     25 H8          2.0764    5.3976   -0.2502 H         1 <0>         0.0916
     26 H9          2.0719    7.9604   -0.3231 H         1 <0>         0.0906
     27 H10         1.3104    7.1290   -1.7004 H         1 <0>         0.0839
     28 H11         0.2500   10.2364   -0.4756 H         1 <0>         0.1955
@<TRIPOS>BOND
     1    1    6 ar
     2    1    2 ar
     3    1   18 1
     4    2    3 ar
     5    2   19 1
     6    3    4 ar
     7    3   20 1
     8    4   10 ar
     9    4    5 ar
    10    5    6 ar
    11    5    7 ar
    12    6   21 1
    13    7    8 ar
    14    7   22 1
    15    8    9 ar
    16    8   23 1
    17    9   14 1
    18    9   10 ar
    19   10   11 1
    20   11   12 1
    21   11   24 1
    22   11   25 1
    23   12   13 1
    24   12   26 1
    25   12   27 1
    26   13   17 1
    27   13   14 2
    28   14   15 1
    29   15   16 1
    30   16   17 2
    31   17   28 1
@<TRIPOS>MOLECULE
ZINC36909894
   30    31     0     0     0
SMALL
USER_CHARGES

@<TRIPOS>ATOM
      1 C1         -0.0187    1.5258    0.0104 C.3       1 <0>        -0.1736
      2 C2          0.0021   -0.0041    0.0020 C.3       1 <0>         0.1014
      3 N1          0.6878   -0.4765   -1.2033 N.pl3     1 <0>        -0.4826
      4 C3          0.1035   -0.7453   -2.4249 C.ar      1 <0>         0.0498
      5 C4         -1.1950   -0.6773   -2.9115 C.ar      1 <0>        -0.1085
      6 C5         -1.4529   -1.0257   -4.2201 C.ar      1 <0>        -0.0953
      7 C6         -0.4242   -1.4436   -5.0525 C.ar      1 <0>        -0.0948
      8 C7          0.8594   -1.5171   -4.5909 C.ar      1 <0>        -0.0617
      9 C8          1.1448   -1.1681   -3.2682 C.ar      1 <0>         0.0489
     10 N2          2.2863   -1.1362   -2.5336 N.2       1 <0>        -0.4637
     11 C9          2.0192   -0.7261   -1.3280 C.2       1 <0>         0.2638
     12 C10         3.0361   -0.5560   -0.2289 C.3       1 <0>         0.0720
     13 H1          2.6042    0.0373    0.5771 H         1 <0>         0.1154
     14 C11         3.4401   -1.9300    0.3094 C.3       1 <0>        -0.1528
     15 Cl1         4.4912    0.2855   -0.8813 Cl        1 <0>        -0.1342
     16 C12        -0.7262   -1.8207   -6.4799 C.3       1 <0>        -0.1115
     17 H2          1.0039    1.9031    0.0027 H         1 <0>         0.0640
     18 H3         -0.5459    1.8868   -0.8726 H         1 <0>         0.0654
     19 H4         -0.5289    1.8773    0.9072 H         1 <0>         0.0810
     20 H5          0.5293   -0.3651    0.8851 H         1 <0>         0.0935
     21 H6         -1.0205   -0.3814    0.0098 H         1 <0>         0.0950
     22 H7         -1.9993   -0.3534   -2.2677 H         1 <0>         0.1224
     23 H8         -2.4625   -0.9733   -4.6000 H         1 <0>         0.1312
     24 H9          1.6523   -1.8443   -5.2471 H         1 <0>         0.1300
     25 H10         3.8720   -2.5233   -0.4966 H         1 <0>         0.0818
     26 H11         4.1756   -1.8069    1.1043 H         1 <0>         0.0829
     27 H12         2.5605   -2.4387    0.7038 H         1 <0>         0.0740
     28 H13        -0.6391   -0.9390   -7.1148 H         1 <0>         0.0709
     29 H14        -0.0181   -2.5796   -6.8129 H         1 <0>         0.0675
     30 H15        -1.7398   -2.2163   -6.5445 H         1 <0>         0.0675
@<TRIPOS>BOND
     1    1    2 1
     2    1   17 1
     3    1   18 1
     4    1   19 1
     5    2    3 1
     6    2   20 1
     7    2   21 1
     8    3   11 1
     9    3    4 1
    10    4    9 ar
    11    4    5 ar
    12    5    6 ar
    13    5   22 1
    14    6    7 ar
    15    6   23 1
    16    7    8 ar
    17    7   16 1
    18    8    9 ar
    19    8   24 1
    20    9   10 1
    21   10   11 2
    22   11   12 1
    23   12   13 1
    24   12   14 1
    25   12   15 1
    26   14   25 1
    27   14   26 1
    28   14   27 1
    29   16   28 1
    30   16   29 1
    31   16   30 1
@<TRIPOS>MOLECULE
ZINC41005616
   28    30     0     0     0
SMALL
USER_CHARGES

@<TRIPOS>ATOM
      1 C1         -0.4785    1.4565    0.1255 C.3       1 <0>        -0.1173
      2 C2         -0.2177   -0.0262    0.0570 C.ar      1 <0>        -0.0740
      3 C3         -0.0622   -0.6425   -1.1718 C.ar      1 <0>        -0.1275
      4 C4          0.1762   -1.9999   -1.2404 C.ar      1 <0>        -0.0923
      5 C5          0.2608   -2.7501   -0.0687 C.ar      1 <0>        -0.0221
      6 C6          0.1039   -2.1239    1.1662 C.ar      1 <0>        -0.0483
      7 C7         -0.1292   -0.7646    1.2231 C.ar      1 <0>        -0.1233
      8 C8          0.1940   -2.9283    2.4374 C.3       1 <0>        -0.1082
      9 C9          0.5165   -4.2099   -0.1361 C.2       1 <0>         0.0846
     10 C10        -0.1086   -5.0903   -0.9549 C.2       1 <0>        -0.0275
     11 N1          0.4230   -6.3498   -0.7025 N.pl3     1 <0>        -0.4355
     12 C11         0.2575   -7.6418   -1.1528 C.2       1 <0>         0.0279
     13 C12         0.9827   -8.6386   -0.6480 C.2       1 <0>        -0.1750
     14 S1          1.9960   -7.7875    0.5514 S.3       1 <0>         0.1276
     15 C13         1.3603   -6.1500    0.2776 C.2       1 <0>         0.1745
     16 N2          1.4161   -4.8916    0.6030 N.2       1 <0>        -0.4269
     17 H1          0.4705    1.9903    0.1768 H         1 <0>         0.0723
     18 H2         -1.0245    1.7708   -0.7640 H         1 <0>         0.0675
     19 H3         -1.0700    1.6809    1.0131 H         1 <0>         0.0674
     20 H4         -0.1280   -0.0603   -2.0790 H         1 <0>         0.1254
     21 H5          0.2968   -2.4802   -2.2002 H         1 <0>         0.1237
     22 H6         -0.2470   -0.2775    2.1798 H         1 <0>         0.1255
     23 H7          1.2389   -3.0272    2.7314 H         1 <0>         0.0782
     24 H8         -0.3595   -2.4216    3.2280 H         1 <0>         0.0620
     25 H9         -0.2322   -3.9178    2.2722 H         1 <0>         0.0635
     26 H10        -0.8803   -4.8559   -1.6731 H         1 <0>         0.1845
     27 H11        -0.4694   -7.8486   -1.9243 H         1 <0>         0.1751
     28 H12         0.9627   -9.6889   -0.8987 H         1 <0>         0.2182
@<TRIPOS>BOND
     1    1    2 1
     2    1   17 1
     3    1   18 1
     4    1   19 1
     5    2    7 ar
     6    2    3 ar
     7    3    4 ar
     8    3   20 1
     9    4    5 ar
    10    4   21 1
    11    5    6 ar
    12    5    9 1
    13    6    7 ar
    14    6    8 1
    15    7   22 1
    16    8   23 1
    17    8   24 1
    18    8   25 1
    19    9   16 1
    20    9   10 2
    21   10   11 1
    22   10   26 1
    23   11   15 1
    24   11   12 1
    25   12   13 2
    26   12   27 1
    27   13   14 1
    28   13   28 1
    29   14   15 1
    30   15   16 2
@<TRIPOS>MOLECULE
ZINC62465273
   32    33     0     0     0
SMALL
USER_CHARGES

@<TRIPOS>ATOM
      1 C1          0.5955    1.3894   -0.3916 C.3       1 <0>        -0.1599
      2 C2          0.3285   -0.1025   -0.1824 C.3       1 <0>         0.1707
      3 H1          0.9281   -0.6828   -0.8836 H         1 <0>         0.0625
      4 C3         -1.1575   -0.3954   -0.4124 C.3       1 <0>        -0.1317
      5 C4         -1.4443   -1.8585   -0.0670 C.3       1 <0>        -0.1178
      6 C5         -1.1256   -2.1079    1.4089 C.3       1 <0>        -0.1317
      7 C6          0.3607   -1.8344    1.6596 C.3       1 <0>         0.1704
      8 H2          0.9631   -2.5579    1.1103 H         1 <0>         0.0624
      9 N1          0.6798   -0.4774    1.1941 N.pl3     1 <0>        -0.6700
     10 C7          1.3021    0.4401    2.0454 C.ar      1 <0>         0.1469
     11 C8          0.5417    1.2762    2.8603 C.ar      1 <0>        -0.0767
     12 C9          1.2032    2.1688    3.6867 C.ar      1 <0>        -0.1454
     13 C10         2.5870    2.2012    3.6765 C.ar      1 <0>         0.1646
     14 N2          3.2777    1.3959    2.8923 N.ar      1 <0>        -0.4700
     15 C11         2.6868    0.5274    2.0953 C.ar      1 <0>         0.1073
     16 Cl1         3.4249    3.3170    4.7093 Cl        1 <0>        -0.0316
     17 C12         0.6583   -1.9499    3.1559 C.3       1 <0>        -0.1598
     18 H3          1.6536    1.5954   -0.2299 H         1 <0>         0.0577
     19 H4          0.3225    1.6682   -1.4094 H         1 <0>         0.0690
     20 H5          0.0006    1.9677    0.3154 H         1 <0>         0.0587
     21 H6         -1.7590    0.2533    0.2243 H         1 <0>         0.0640
     22 H7         -1.4068   -0.2128   -1.4577 H         1 <0>         0.0693
     23 H8         -2.4960   -2.0761   -0.2532 H         1 <0>         0.0624
     24 H9         -0.8243   -2.5062   -0.6868 H         1 <0>         0.0624
     25 H10        -1.7274   -1.4430    2.0285 H         1 <0>         0.0640
     26 H11        -1.3522   -3.1441    1.6600 H         1 <0>         0.0692
     27 H12        -0.5372    1.2295    2.8474 H         1 <0>         0.1413
     28 H13         0.6459    2.8322    4.3314 H         1 <0>         0.1446
     29 H14         3.2859   -0.1193    1.4715 H         1 <0>         0.1615
     30 H15         0.3968   -2.9498    3.5022 H         1 <0>         0.0691
     31 H16         1.7192   -1.7709    3.3303 H         1 <0>         0.0577
     32 H17         0.0708   -1.2114    3.7013 H         1 <0>         0.0588
@<TRIPOS>BOND
     1    1    2 1
     2    1   18 1
     3    1   19 1
     4    1   20 1
     5    2    3 1
     6    2    9 1
     7    2    4 1
     8    4    5 1
     9    4   21 1
    10    4   22 1
    11    5    6 1
    12    5   23 1
    13    5   24 1
    14    6    7 1
    15    6   25 1
    16    6   26 1
    17    7    8 1
    18    7    9 1
    19    7   17 1
    20    9   10 1
    21   10   15 ar
    22   10   11 ar
    23   11   12 ar
    24   11   27 1
    25   12   13 ar
    26   12   28 1
    27   13   14 ar
    28   13   16 1
    29   14   15 ar
    30   15   29 1
    31   17   30 1
    32   17   31 1
    33   17   32 1
@<TRIPOS>MOLECULE
ZINC13049399
   50    53     0     0     0
SMALL
USER_CHARGES
2-[(2-chloro-3-quinolyl)methylsulfanyl]-3-isobutyl-4-oxo-quinazoline-7-carboxylic acid
@<TRIPOS>ATOM
      1 C1         -4.9228    4.1721   -5.7173 C.3       1 <0>        -0.1419
      2 C2         -5.3022    4.4093   -4.2542 C.3       1 <0>        -0.1118
      3 C3         -4.7734    3.2576   -3.3969 C.3       1 <0>        -0.1532
      4 C4         -4.6875    5.7259   -3.7749 C.3       1 <0>         0.0942
      5 N1         -5.1475    6.0128   -2.4139 N.am      1 <0>        -0.5283
      6 C5         -6.2805    6.7277   -2.2253 C.2       1 <0>         0.5573
      7 O1         -6.9304    7.1400   -3.1682 O.2       1 <0>        -0.5150
      8 C6         -6.6958    6.9931   -0.8387 C.ar      1 <0>        -0.1955
      9 C7         -7.8458    7.7256   -0.5461 C.ar      1 <0>        -0.0637
     10 C8         -8.1967    7.9505    0.7540 C.ar      1 <0>        -0.0863
     11 C9         -7.4112    7.4516    1.8013 C.ar      1 <0>        -0.0667
     12 C10        -6.2616    6.7194    1.5329 C.ar      1 <0>        -0.0721
     13 C11        -5.8923    6.4827    0.2057 C.ar      1 <0>         0.1386
     14 N2         -4.7803    5.7749   -0.1028 N.2       1 <0>        -0.5085
     15 C12        -4.4319    5.5522   -1.3460 C.2       1 <0>         0.3503
     16 S1         -2.9680    4.6212   -1.6542 S.3       1 <0>         0.0014
     17 C13        -2.4429    4.2890    0.0458 C.3       1 <0>        -0.0772
     18 C14        -1.1713    3.4805    0.0299 C.ar      1 <0>        -0.1177
     19 C15        -1.2288    2.1163    0.0193 C.ar      1 <0>        -0.0202
     20 C16        -0.0170    1.4000    0.0097 C.ar      1 <0>        -0.1026
     21 C17         0.0021   -0.0041    0.0020 C.ar      1 <0>        -0.0885
     22 C18         1.1946   -0.6608   -0.0128 C.ar      1 <0>        -0.1145
     23 C19         2.3978    0.0421   -0.0210 C.ar      1 <0>        -0.0935
     24 C20         2.4162    1.4027   -0.0134 C.ar      1 <0>        -0.0926
     25 C21         1.2053    2.1168    0.0019 C.ar      1 <0>         0.1444
     26 N3          1.1929    3.4535    0.0081 N.ar      1 <0>        -0.4640
     27 C22         0.0656    4.1249    0.0215 C.ar      1 <0>         0.2215
     28 Cl1         0.1149    5.8601    0.0284 Cl        1 <0>        -0.0111
     29 C23        -7.8087    7.7068    3.2035 C.2       1 <0>         0.4878
     30 O2         -7.1308    7.2768    4.1147 O.co2     1 <0>        -0.6209
     31 H1         -3.8378    4.1205   -5.8075 H         1 <0>         0.0585
     32 H2         -5.3608    3.2342   -6.0587 H         1 <0>         0.0613
     33 H3         -5.2996    4.9926   -6.3280 H         1 <0>         0.0582
     34 H4         -6.3873    4.4609   -4.1640 H         1 <0>         0.0779
     35 H5         -5.0437    3.4267   -2.3546 H         1 <0>         0.0573
     36 H6         -5.2113    2.3197   -3.7384 H         1 <0>         0.0585
     37 H7         -3.6883    3.2061   -3.4872 H         1 <0>         0.0686
     38 H8         -4.9940    6.5333   -4.4398 H         1 <0>         0.1022
     39 H9         -3.6006    5.6429   -3.7812 H         1 <0>         0.0951
     40 H10        -8.4578    8.1143   -1.3466 H         1 <0>         0.1335
     41 H11        -9.0882    8.5178    0.9772 H         1 <0>         0.1431
     42 H12        -5.6582    6.3366    2.3427 H         1 <0>         0.1448
     43 H13        -3.2222    3.7303    0.5642 H         1 <0>         0.1204
     44 H14        -2.2672    5.2324    0.5627 H         1 <0>         0.1200
     45 H15        -2.1779    1.6010    0.0211 H         1 <0>         0.1558
     46 H16        -0.9239   -0.5598    0.0082 H         1 <0>         0.1358
     47 H17         1.2082   -1.7407   -0.0188 H         1 <0>         0.1312
     48 H18         3.3308   -0.5019   -0.0331 H         1 <0>         0.1332
     49 H19         3.3576    1.9321   -0.0198 H         1 <0>         0.1390
     50 O3         -8.9223    8.4162    3.4693 O.co2     1 <0>        -0.7439
@<TRIPOS>BOND
     1    1    2 1
     2    1   31 1
     3    1   32 1
     4    1   33 1
     5    2    3 1
     6    2    4 1
     7    2   34 1
     8    3   35 1
     9    3   36 1
    10    3   37 1
    11    4    5 1
    12    4   38 1
    13    4   39 1
    14    5   15 1
    15    5    6 am
    16    6    7 2
    17    6    8 1
    18    8   13 ar
    19    8    9 ar
    20    9   10 ar
    21    9   40 1
    22   10   11 ar
    23   10   41 1
    24   11   12 ar
    25   11   29 1
    26   12   13 ar
    27   12   42 1
    28   13   14 1
    29   14   15 2
    30   15   16 1
    31   16   17 1
    32   17   18 1
    33   17   43 1
    34   17   44 1
    35   18   27 ar
    36   18   19 ar
    37   19   20 ar
    38   19   45 1
    39   20   25 ar
    40   20   21 ar
    41   21   22 ar
    42   21   46 1
    43   22   23 ar
    44   22   47 1
    45   23   24 ar
    46   23   48 1
    47   24   25 ar
    48   24   49 1
    49   25   26 ar
    50   26   27 ar
    51   27   28 1
    52   29   30 2
    53   29   50 1
@<TRIPOS>MOLECULE
ZINC16431020
   39    42     0     0     0
SMALL
USER_CHARGES
4-nitro-2-[(E)-[2-(2,3,4,5,6-pentafluorophenyl)-1,3-benzoxazol-5-yl]iminomethyl]phenol
@<TRIPOS>ATOM
      1 C1          2.3777    1.4445   -0.0137 C.ar      1 <0>        -0.1212
      2 C2          1.1741    2.1128    0.0022 C.ar      1 <0>        -0.0779
      3 C3         -0.0170    1.4013    0.0097 C.ar      1 <0>         0.0011
      4 C4          0.0021   -0.0041    0.0020 C.ar      1 <0>         0.0369
      5 C5          1.2213   -0.6804   -0.0137 C.ar      1 <0>        -0.0551
      6 C6          2.4095    0.0445   -0.0215 C.ar      1 <0>         0.1160
      7 N1          3.6107   -0.6120   -0.0365 N.2       1 <0>        -0.4593
      8 C7          4.5577   -0.2200   -0.8420 C.2       1 <0>         0.2402
      9 C8          5.8480   -0.9252   -0.8580 C.ar      1 <0>        -0.2330
     10 C9          6.8669   -0.5083   -1.7205 C.ar      1 <0>         0.0363
     11 C10         8.0734   -1.1739   -1.7302 C.ar      1 <0>        -0.1794
     12 C11         8.2825   -2.2545   -0.8889 C.ar      1 <0>        -0.0126
     13 C12         7.2849   -2.6768   -0.0315 C.ar      1 <0>        -0.2364
     14 C13         6.0665   -2.0169   -0.0041 C.ar      1 <0>         0.3228
     15 N2          9.1512   -0.7320   -2.6433 N.pl3     1 <0>         0.0673
     16 O1          8.9706    0.2179   -3.3839 O.2       1 <0>        -0.2238
     17 O2         10.2188   -1.3183   -2.6542 O.3       1 <0>        -0.2214
     18 N3         -1.2941   -0.4118    0.0127 N.2       1 <0>        -0.4260
     19 C14        -2.0675    0.6450    0.0260 C.2       1 <0>         0.2546
     20 O3         -1.3196    1.7647    0.0296 O.3       1 <0>        -0.1972
     21 C15        -3.5430    0.6134    0.0404 C.ar      1 <0>        -0.0418
     22 C16        -4.2191   -0.6109    0.0347 C.ar      1 <0>         0.1720
     23 C17        -5.6018   -0.6340    0.0536 C.ar      1 <0>         0.0559
     24 C18        -6.3180    0.5538    0.0671 C.ar      1 <0>         0.1148
     25 C19        -5.6533    1.7712    0.0671 C.ar      1 <0>         0.0557
     26 C20        -4.2709    1.8075    0.0540 C.ar      1 <0>         0.1532
     27 F1         -3.6248    2.9940    0.0540 F         1 <0>        -0.0851
     28 F2         -6.3578    2.9239    0.0802 F         1 <0>        -0.0954
     29 F3         -7.6686    0.5248    0.0798 F         1 <0>        -0.0907
     30 F4         -6.2563   -1.8159    0.0542 F         1 <0>        -0.0934
     31 F5         -3.5229   -1.7685    0.0164 F         1 <0>        -0.0707
     32 H1          3.3022    2.0028   -0.0199 H         1 <0>         0.1430
     33 H2          1.1571    3.1926    0.0078 H         1 <0>         0.1382
     34 H3          1.2435   -1.7601   -0.0193 H         1 <0>         0.1455
     35 H4          4.3946    0.6226   -1.4976 H         1 <0>         0.0938
     36 H5          6.7084    0.3336   -2.3781 H         1 <0>         0.1311
     37 H6          9.2315   -2.7699   -0.9031 H         1 <0>         0.1267
     38 H7          7.4562   -3.5201    0.6211 H         1 <0>         0.1240
     39 O4          5.0876   -2.4276    0.8415 O.3       1 <0>        -0.6087
@<TRIPOS>BOND
     1    1    6 ar
     2    1    2 ar
     3    1   32 1
     4    2    3 ar
     5    2   33 1
     6    3   20 1
     7    3    4 ar
     8    4    5 ar
     9    4   18 1
    10    5    6 ar
    11    5   34 1
    12    6    7 1
    13    7    8 2
    14    8    9 1
    15    8   35 1
    16    9   14 ar
    17    9   10 ar
    18   10   11 ar
    19   10   36 1
    20   11   12 ar
    21   11   15 1
    22   12   13 ar
    23   12   37 1
    24   13   14 ar
    25   13   38 1
    26   14   39 1
    27   15   16 2
    28   15   17 1
    29   18   19 2
    30   19   20 1
    31   19   21 1
    32   21   26 ar
    33   21   22 ar
    34   22   23 ar
    35   22   31 1
    36   23   24 ar
    37   23   30 1
    38   24   25 ar
    39   24   29 1
    40   25   26 ar
    41   25   28 1
    42   26   27 1
@<TRIPOS>MOLECULE
ZINC34923331
   61    63     0     0     0
SMALL
USER_CHARGES

@<TRIPOS>ATOM
      1 C1         -0.7701    1.3099    0.0144 C.3       1 <0>        -0.1082
      2 C2         -0.5377   -0.1790    0.0045 C.ar      1 <0>        -0.0924
      3 C3         -0.5307   -0.8696   -1.1933 C.ar      1 <0>        -0.1225
      4 C4         -0.3175   -2.2351   -1.2024 C.ar      1 <0>        -0.1196
      5 C5         -0.1107   -2.9105   -0.0138 C.ar      1 <0>        -0.0953
      6 C6         -0.1168   -2.2200    1.1834 C.ar      1 <0>        -0.0643
      7 C7         -0.3258   -0.8533    1.1922 C.ar      1 <0>        -0.0715
      8 C8          0.1082   -2.9562    2.4790 C.3       1 <0>         0.2609
      9 H1          0.3304   -2.2160    3.2477 H         1 <0>         0.0705
     10 C9         -1.1856   -3.6434    2.8546 C.2       1 <0>        -0.3925
     11 C10        -1.1628   -5.0154    3.0169 C.2       1 <0>         0.3026
     12 N1         -0.0388   -5.6920    2.8465 N.2       1 <0>        -0.5973
     13 C11         1.1191   -5.1557    2.5200 C.2       1 <0>         0.3199
     14 N2          1.3084   -3.8186    2.3131 N.pl3     1 <0>        -0.5125
     15 C12         2.5839   -3.4117    1.9760 C.2       1 <0>         0.2316
     16 C13         3.5394   -4.3620    1.8766 C.2       1 <0>        -0.3064
     17 S1          2.6291   -5.8419    2.2632 S.3       1 <0>         0.1416
     18 C14         2.8916   -1.9949    1.7332 C.2       1 <0>        -0.4649
     19 C15         4.1141   -1.6366    1.2961 C.2       1 <0>         0.5029
     20 O1          5.0247   -2.5877    0.9750 O.3       1 <0>        -0.7033
     21 N3          4.4407   -0.2965    1.1748 N.pl3     1 <0>        -0.6300
     22 C16         3.4974    0.7308    1.6233 C.3       1 <0>         0.1016
     23 C17         5.7295    0.0941    0.5979 C.3       1 <0>         0.1448
     24 C18         5.4950    1.0471   -0.5759 C.3       1 <0>        -0.1588
     25 C19         6.5736    0.7958    1.6638 C.3       1 <0>        -0.1561
     26 C20        -2.4267   -5.7459    3.3911 C.3       1 <0>        -0.1162
     27 C21        -2.3672   -2.9136    3.0325 C.2       1 <0>         0.5383
     28 O2         -3.3783   -3.4751    3.4168 O.2       1 <0>        -0.5504
     29 O3         -2.3865   -1.5865    2.7780 O.3       1 <0>        -0.3443
     30 C22        -3.6260   -0.9049    2.9810 C.3       1 <0>         0.0817
     31 C23        -3.6970   -0.3939    4.4215 C.3       1 <0>        -0.1677
     32 C24        -3.7219    0.2777    2.0151 C.3       1 <0>        -0.1458
     33 H2          0.1892    1.8275    0.0158 H         1 <0>         0.0648
     34 H3         -1.3357    1.5953   -0.8726 H         1 <0>         0.0589
     35 H4         -1.3321    1.5840    0.9073 H         1 <0>         0.0633
     36 H5         -0.6922   -0.3420   -2.1217 H         1 <0>         0.1120
     37 H6         -0.3127   -2.7747   -2.1379 H         1 <0>         0.1126
     38 H7          0.0552   -3.9776   -0.0209 H         1 <0>         0.1014
     39 H8         -0.3268   -0.3132    2.1274 H         1 <0>         0.1157
     40 H9          4.5846   -4.2522    1.6278 H         1 <0>         0.2339
     41 H10         2.1373   -1.2414    1.9053 H         1 <0>         0.0947
     42 H11         3.6880    0.9669    2.6702 H         1 <0>         0.0310
     43 H12         3.6244    1.6293    1.0193 H         1 <0>         0.0493
     44 H13         2.4780    0.3607    1.5140 H         1 <0>         0.0660
     45 H14         6.2540   -0.7941    0.2457 H         1 <0>         0.0963
     46 H15         4.9705    1.9353   -0.2236 H         1 <0>         0.0498
     47 H16         6.4539    1.3377   -1.0050 H         1 <0>         0.0550
     48 H17         4.8936    0.5472   -1.3352 H         1 <0>         0.0540
     49 H18         6.0121    1.6326    2.0792 H         1 <0>         0.0471
     50 H19         6.8152    0.0901    2.4586 H         1 <0>         0.0544
     51 H20         7.4949    1.1646    1.2129 H         1 <0>         0.0525
     52 H21        -3.0101   -5.9464    2.4925 H         1 <0>         0.0778
     53 H22        -2.1717   -6.6879    3.8766 H         1 <0>         0.0641
     54 H23        -3.0125   -5.1316    4.0750 H         1 <0>         0.1132
     55 H24        -4.4524   -1.5916    2.7979 H         1 <0>         0.0766
     56 H25        -2.8706    0.2927    4.6046 H         1 <0>         0.0608
     57 H26        -4.6425    0.1259    4.5763 H         1 <0>         0.0649
     58 H27        -3.6287   -1.2365    5.1096 H         1 <0>         0.0594
     59 H28        -3.6712   -0.0863    0.9889 H         1 <0>         0.0622
     60 H29        -4.6673    0.7976    2.1699 H         1 <0>         0.0680
     61 H30        -2.8954    0.9644    2.1982 H         1 <0>         0.0640
@<TRIPOS>BOND
     1    1    2 1
     2    1   33 1
     3    1   34 1
     4    1   35 1
     5    2    7 ar
     6    2    3 ar
     7    3    4 ar
     8    3   36 1
     9    4    5 ar
    10    4   37 1
    11    5    6 ar
    12    5   38 1
    13    6    7 ar
    14    6    8 1
    15    7   39 1
    16    8    9 1
    17    8   14 1
    18    8   10 1
    19   10   11 2
    20   10   27 1
    21   11   12 1
    22   11   26 1
    23   12   13 2
    24   13   17 1
    25   13   14 1
    26   14   15 1
    27   15   16 2
    28   15   18 1
    29   16   17 1
    30   16   40 1
    31   18   19 2
    32   18   41 1
    33   19   20 1
    34   19   21 1
    35   21   22 1
    36   21   23 1
    37   22   42 1
    38   22   43 1
    39   22   44 1
    40   23   24 1
    41   23   25 1
    42   23   45 1
    43   24   46 1
    44   24   47 1
    45   24   48 1
    46   25   49 1
    47   25   50 1
    48   25   51 1
    49   26   52 1
    50   26   53 1
    51   26   54 1
    52   27   28 2
    53   27   29 1
    54   29   30 1
    55   30   31 1
    56   30   32 1
    57   30   55 1
    58   31   56 1
    59   31   57 1
    60   31   58 1
    61   32   59 1
    62   32   60 1
    63   32   61 1
@<TRIPOS>MOLECULE
ZINC36050436
   59    62     0     0     0
SMALL
USER_CHARGES

@<TRIPOS>ATOM
      1 C1          0.9899    1.6201   -0.0665 C.3       1 <0>        -0.1503
      2 C2          1.1025    0.0943   -0.0578 C.3       1 <0>         0.0671
      3 O1          1.6353   -0.3369    1.1961 O.3       1 <0>        -0.3533
      4 C3          1.7051   -1.6698    1.4073 C.2       1 <0>         0.5390
      5 O2          1.4098   -2.4447    0.5140 O.2       1 <0>        -0.5503
      6 C4          2.1166   -2.1608    2.6523 C.2       1 <0>        -0.3893
      7 C5          2.2651   -3.5170    2.8712 C.2       1 <0>         0.3019
      8 N1          2.6547   -3.9666    4.0529 N.2       1 <0>        -0.5974
      9 C6          2.9288   -3.2066    5.0931 C.2       1 <0>         0.3240
     10 N2          2.8448   -1.8423    5.0843 N.pl3     1 <0>        -0.5103
     11 C7          2.4194   -1.2239    3.8003 C.3       1 <0>         0.2614
     12 H1          3.2043   -0.5400    3.4772 H         1 <0>         0.0726
     13 C8          1.1822   -0.4073    4.0714 C.ar      1 <0>        -0.0783
     14 C9          1.1177    0.9092    3.6538 C.ar      1 <0>        -0.0696
     15 C10        -0.0170    1.6582    3.9024 C.ar      1 <0>        -0.1315
     16 C11        -1.0877    1.0908    4.5682 C.ar      1 <0>        -0.0869
     17 C12        -1.0235   -0.2254    4.9848 C.ar      1 <0>        -0.1260
     18 C13         0.1098   -0.9760    4.7324 C.ar      1 <0>        -0.0520
     19 C14         0.1778   -2.4127    5.1819 C.3       1 <0>        -0.1286
     20 C15        -2.3245    1.9078    4.8401 C.3       1 <0>        -0.1081
     21 C16         3.1660   -1.1868    6.2562 C.2       1 <0>         0.2363
     22 C17         3.5364   -1.9405    7.3148 C.2       1 <0>        -0.3062
     23 S1          3.4293   -3.5896    6.6487 S.3       1 <0>         0.1425
     24 C18         3.1077    0.2791    6.3489 C.2       1 <0>        -0.4651
     25 C19         3.5762    0.9036    7.4463 C.2       1 <0>         0.5177
     26 O3          4.2350    0.1985    8.3980 O.3       1 <0>        -0.7031
     27 N3          3.3848    2.2661    7.6023 N.pl3     1 <0>        -0.6364
     28 C20         2.6856    3.1471    6.6555 C.3       1 <0>         0.1243
     29 C21         2.7424    4.5772    7.2327 C.3       1 <0>        -0.1322
     30 C22         3.9595    4.5162    8.1931 C.3       1 <0>        -0.1350
     31 C23         3.8429    3.0724    8.7484 C.3       1 <0>         0.1211
     32 C24         1.9809   -4.4905    1.7565 C.3       1 <0>        -0.1174
     33 H2          1.9774    2.0582    0.0786 H         1 <0>         0.0628
     34 H3          0.5836    1.9490   -1.0230 H         1 <0>         0.0706
     35 H4          0.3286    1.9402    0.7386 H         1 <0>         0.0652
     36 H5          0.1150   -0.3437   -0.2029 H         1 <0>         0.0579
     37 H6          1.7639   -0.2258   -0.8630 H         1 <0>         0.0576
     38 H7          1.9540    1.3523    3.1337 H         1 <0>         0.1175
     39 H8         -0.0671    2.6867    3.5768 H         1 <0>         0.1140
     40 H9         -1.8598   -0.6685    5.5052 H         1 <0>         0.1123
     41 H10         0.6003   -2.4598    6.1856 H         1 <0>         0.0654
     42 H11        -0.8255   -2.8388    5.1897 H         1 <0>         0.0568
     43 H12         0.8076   -2.9788    4.4957 H         1 <0>         0.0762
     44 H13        -3.0203    1.8016    4.0078 H         1 <0>         0.0635
     45 H14        -2.7980    1.5561    5.7567 H         1 <0>         0.0609
     46 H15        -2.0497    2.9566    4.9524 H         1 <0>         0.0622
     47 H16         3.8233   -1.6252    8.3071 H         1 <0>         0.2299
     48 H17         2.6891    0.8552    5.5369 H         1 <0>         0.0956
     49 H18         3.1831    3.1186    5.6860 H         1 <0>         0.0487
     50 H19         1.6479    2.8303    6.5514 H         1 <0>         0.0527
     51 H20         2.9123    5.3064    6.4406 H         1 <0>         0.0713
     52 H21         1.8293    4.8080    7.7815 H         1 <0>         0.0684
     53 H22         4.8938    4.6549    7.6490 H         1 <0>         0.0690
     54 H23         3.8628    5.2498    8.9934 H         1 <0>         0.0718
     55 H24         3.1126    3.0322    9.5566 H         1 <0>         0.0457
     56 H25         4.8142    2.7205    9.0958 H         1 <0>         0.0664
     57 H26         2.8661   -4.5927    1.1288 H         1 <0>         0.0790
     58 H27         1.7211   -5.4610    2.1792 H         1 <0>         0.0646
     59 H28         1.1498   -4.1219    1.1553 H         1 <0>         0.1130
@<TRIPOS>BOND
     1    1    2 1
     2    1   33 1
     3    1   34 1
     4    1   35 1
     5    2    3 1
     6    2   36 1
     7    2   37 1
     8    3    4 1
     9    4    5 2
    10    4    6 1
    11    6   11 1
    12    6    7 2
    13    7    8 1
    14    7   32 1
    15    8    9 2
    16    9   23 1
    17    9   10 1
    18   10   11 1
    19   10   21 1
    20   11   12 1
    21   11   13 1
    22   13   18 ar
    23   13   14 ar
    24   14   15 ar
    25   14   38 1
    26   15   16 ar
    27   15   39 1
    28   16   17 ar
    29   16   20 1
    30   17   18 ar
    31   17   40 1
    32   18   19 1
    33   19   41 1
    34   19   42 1
    35   19   43 1
    36   20   44 1
    37   20   45 1
    38   20   46 1
    39   21   22 2
    40   21   24 1
    41   22   23 1
    42   22   47 1
    43   24   25 2
    44   24   48 1
    45   25   26 1
    46   25   27 1
    47   27   31 1
    48   27   28 1
    49   28   29 1
    50   28   49 1
    51   28   50 1
    52   29   30 1
    53   29   51 1
    54   29   52 1
    55   30   31 1
    56   30   53 1
    57   30   54 1
    58   31   55 1
    59   31   56 1
    60   32   57 1
    61   32   58 1
    62   32   59 1
@<TRIPOS>MOLECULE
ZINC40147274
   47    50     0     0     0
SMALL
USER_CHARGES

@<TRIPOS>ATOM
      1 C1         -0.5449    1.9418    0.4951 C.ar      1 <0>        -0.1155
      2 C2          0.7541    2.4244    0.3451 C.ar      1 <0>        -0.1252
      3 C3          1.8203    1.5787    0.3462 C.ar      1 <0>        -0.0892
      4 C4          1.6121    0.1974    0.5011 C.ar      1 <0>        -0.0451
      5 C5          0.2911   -0.2933    0.6542 C.ar      1 <0>        -0.0489
      6 C6         -0.7848    0.6110    0.6475 C.ar      1 <0>        -0.1147
      7 C7          0.0830   -1.6741    0.8096 C.ar      1 <0>        -0.1241
      8 C8          1.1495   -2.5200    0.8111 C.ar      1 <0>        -0.1077
      9 C9          2.4480   -2.0376    0.6611 C.ar      1 <0>        -0.1220
     10 C10         2.6878   -0.7064    0.5078 C.ar      1 <0>        -0.0455
     11 C11         4.0996   -0.2048    0.3460 C.3       1 <0>         0.0438
     12 C12         4.6385    0.2203    1.6876 C.2       1 <0>        -0.4124
     13 C13         5.3686   -0.5755    2.6804 C.2       1 <0>         0.0975
     14 N1          5.7307    0.0123    3.7626 N.2       1 <0>        -0.5422
     15 C14         5.4241    1.3276    3.9345 C.2       1 <0>         0.3413
     16 S1          4.5626    1.7317    2.4258 S.3       1 <0>         0.0732
     17 N2          5.6999    2.1096    4.9592 N.2       1 <0>        -0.6049
     18 C15         6.3699    1.6214    6.0146 C.2       1 <0>         0.4464
     19 O1          6.7606    0.3324    6.0267 O.3       1 <0>        -0.6077
     20 C16         6.6647    2.4574    7.1100 C.2       1 <0>         0.0214
     21 C17         7.3640    1.9479    8.2116 C.2       1 <0>        -0.0318
     22 C18         7.5258    2.7377    9.3733 C.ar      1 <0>         0.0010
     23 C19         6.4865    3.5820    9.8069 C.ar      1 <0>        -0.1079
     24 C20         6.6549    4.3461   10.9387 C.ar      1 <0>        -0.0412
     25 C21         7.8432    4.2870   11.6510 C.ar      1 <0>        -0.0110
     26 C22         8.8739    3.4589   11.2330 C.ar      1 <0>        -0.0484
     27 C23         8.7252    2.6811   10.1077 C.ar      1 <0>        -0.0994
     28 N3          8.0130    5.1149   12.8668 N.pl3     1 <0>        -0.0151
     29 O2          7.0375    5.9035   13.2680 O.2       1 <0>        -0.1755
     30 O3          9.1395    5.0626   13.5471 O.3       1 <0>        -0.1759
     31 C24         6.2493    3.8277    7.0971 C.1       1 <0>         0.2622
     32 N4          5.9197    4.9148    7.0868 N.1       1 <0>        -0.4116
     33 H1         -1.3731    2.6349    0.4949 H         1 <0>         0.1186
     34 H2          0.9169    3.4854    0.2258 H         1 <0>         0.1206
     35 H3          2.8212    1.9670    0.2282 H         1 <0>         0.1265
     36 H4         -1.7967    0.2515    0.7631 H         1 <0>         0.1219
     37 H5         -0.9179   -2.0623    0.9276 H         1 <0>         0.1210
     38 H6          0.9867   -3.5810    0.9308 H         1 <0>         0.1186
     39 H7          3.2766   -2.7302    0.6662 H         1 <0>         0.1208
     40 H8          4.7236   -1.0007   -0.0606 H         1 <0>         0.0777
     41 H9          4.1070    0.6464   -0.3348 H         1 <0>         0.0695
     42 H10         5.5928   -1.6177    2.5073 H         1 <0>         0.1404
     43 H11         7.7797    0.9518    8.1736 H         1 <0>         0.1742
     44 H12         5.5604    3.6300    9.2533 H         1 <0>         0.1505
     45 H13         5.8588    4.9947   11.2734 H         1 <0>         0.1574
     46 H14         9.7952    3.4210   11.7952 H         1 <0>         0.1586
     47 H15         9.5275    2.0335    9.7864 H         1 <0>         0.1598
@<TRIPOS>BOND
     1    1    6 ar
     2    1    2 ar
     3    1   33 1
     4    2    3 ar
     5    2   34 1
     6    3    4 ar
     7    3   35 1
     8    4   10 ar
     9    4    5 ar
    10    5    6 ar
    11    5    7 ar
    12    6   36 1
    13    7    8 ar
    14    7   37 1
    15    8    9 ar
    16    8   38 1
    17    9   10 ar
    18    9   39 1
    19   10   11 1
    20   11   12 1
    21   11   40 1
    22   11   41 1
    23   12   16 1
    24   12   13 2
    25   13   14 1
    26   13   42 1
    27   14   15 2
    28   15   16 1
    29   15   17 1
    30   17   18 2
    31   18   19 1
    32   18   20 1
    33   20   21 2
    34   20   31 1
    35   21   22 1
    36   21   43 1
    37   22   27 ar
    38   22   23 ar
    39   23   24 ar
    40   23   44 1
    41   24   25 ar
    42   24   45 1
    43   25   26 ar
    44   25   28 1
    45   26   27 ar
    46   26   46 1
    47   27   47 1
    48   28   29 2
    49   28   30 1
    50   31   32 3
@<TRIPOS>MOLECULE
ZINC03144689
   46    49     0     0     0
SMALL
USER_CHARGES
4-chloro-2-[(E)-[3-(5,6-dimethyl-1,3-benzoxazol-2-yl)-4-hydroxy-phenyl]iminomethyl]-6-nitro-phenol
@<TRIPOS>ATOM
      1 C1         -1.2955   -0.7705    0.0103 C.3       1 <0>        -0.1116
      2 C2          0.0021   -0.0041    0.0020 C.ar      1 <0>        -0.0883
      3 C3          1.1989   -0.6852   -0.0136 C.ar      1 <0>        -0.0613
      4 C4          2.4007    0.0264   -0.0213 C.ar      1 <0>         0.0247
      5 C5          2.3767    1.4308   -0.0130 C.ar      1 <0>         0.0083
      6 C6          1.1628    2.0989    0.0022 C.ar      1 <0>        -0.0894
      7 C7         -0.0167    1.3825    0.0096 C.ar      1 <0>        -0.0639
      8 C8         -1.3351    2.1125    0.0198 C.3       1 <0>        -0.1135
      9 O1          3.6668    1.8346   -0.0229 O.3       1 <0>        -0.2057
     10 C9          4.4488    0.7385   -0.0366 C.2       1 <0>         0.3040
     11 N1          3.7079   -0.3413   -0.0357 N.2       1 <0>        -0.4543
     12 C10         5.9254    0.7521   -0.0497 C.ar      1 <0>        -0.0503
     13 C11         6.6132    1.9640   -0.0551 C.ar      1 <0>        -0.0606
     14 C12         8.0067    1.9681   -0.0621 C.ar      1 <0>         0.1008
     15 C13         8.7087    0.7585   -0.0749 C.ar      1 <0>        -0.1256
     16 C14         8.0268   -0.4394   -0.0748 C.ar      1 <0>        -0.1295
     17 C15         6.6396   -0.4540   -0.0625 C.ar      1 <0>         0.1347
     18 O2          5.9735   -1.6368   -0.0634 O.3       1 <0>        -0.4749
     19 N2          8.6880    3.1553   -0.0628 N.2       1 <0>        -0.4518
     20 C16         9.7123    3.3193    0.7265 C.2       1 <0>         0.2310
     21 C17        10.4442    4.5948    0.7259 C.ar      1 <0>        -0.2053
     22 C18        11.5438    4.7753    1.5710 C.ar      1 <0>         0.0135
     23 C19        12.2253    5.9741    1.5649 C.ar      1 <0>        -0.1681
     24 C20        11.8247    7.0016    0.7248 C.ar      1 <0>         0.0282
     25 C21        10.7405    6.8357   -0.1150 C.ar      1 <0>        -0.1845
     26 C22        10.0472    5.6359   -0.1267 C.ar      1 <0>         0.3270
     27 N3         10.3221    7.9395   -1.0081 N.pl3     1 <0>         0.0643
     28 O3         10.9336    8.9928   -1.0020 O.2       1 <0>        -0.2558
     29 O4          9.3663    7.7944   -1.7490 O.3       1 <0>        -0.1518
     30 Cl1        13.5901    6.1979    2.6141 Cl        1 <0>        -0.0908
     31 H1         -1.6182   -0.9497   -1.0153 H         1 <0>         0.0727
     32 H2         -1.1508   -1.7243    0.5177 H         1 <0>         0.0685
     33 H3         -2.0559   -0.1917    0.5346 H         1 <0>         0.0716
     34 H4          1.2082   -1.7652   -0.0195 H         1 <0>         0.1354
     35 H5          1.1398    3.1786    0.0083 H         1 <0>         0.1362
     36 H6         -1.6480    2.2830    1.0499 H         1 <0>         0.0750
     37 H7         -1.2242    3.0699   -0.4893 H         1 <0>         0.0705
     38 H8         -2.0865    1.5128   -0.4937 H         1 <0>         0.0738
     39 H9          6.0685    2.8965   -0.0498 H         1 <0>         0.1426
     40 H10         9.7887    0.7630   -0.0852 H         1 <0>         0.1323
     41 H11         8.5745   -1.3701   -0.0847 H         1 <0>         0.1375
     42 H12         5.7730   -1.9746   -0.9470 H         1 <0>         0.3889
     43 H13        10.0234    2.5185    1.3810 H         1 <0>         0.0972
     44 H14        11.8585    3.9774    2.2274 H         1 <0>         0.1289
     45 H15        12.3639    7.9374    0.7267 H         1 <0>         0.1359
     46 O5          8.9849    5.4705   -0.9555 O.3       1 <0>        -0.5664
@<TRIPOS>BOND
     1    1    2 1
     2    1   31 1
     3    1   32 1
     4    1   33 1
     5    2    7 ar
     6    2    3 ar
     7    3    4 ar
     8    3   34 1
     9    4   11 1
    10    4    5 ar
    11    5    6 ar
    12    5    9 1
    13    6    7 ar
    14    6   35 1
    15    7    8 1
    16    8   36 1
    17    8   37 1
    18    8   38 1
    19    9   10 1
    20   10   11 2
    21   10   12 1
    22   12   17 ar
    23   12   13 ar
    24   13   14 ar
    25   13   39 1
    26   14   15 ar
    27   14   19 1
    28   15   16 ar
    29   15   40 1
    30   16   17 ar
    31   16   41 1
    32   17   18 1
    33   18   42 1
    34   19   20 2
    35   20   21 1
    36   20   43 1
    37   21   26 ar
    38   21   22 ar
    39   22   23 ar
    40   22   44 1
    41   23   24 ar
    42   23   30 1
    43   24   25 ar
    44   24   45 1
    45   25   26 ar
    46   25   27 1
    47   26   46 1
    48   27   28 2
    49   27   29 1
@<TRIPOS>MOLECULE
ZINC20492190
   36    39     0     0     0
SMALL
USER_CHARGES

@<TRIPOS>ATOM
      1 C1          0.2020    1.0959    0.4032 C.ar      1 <0>        -0.0920
      2 C2          1.4153    1.7506    0.4345 C.ar      1 <0>        -0.0880
      3 C3          2.5945    1.0362    0.3055 C.ar      1 <0>        -0.0779
      4 C4          2.5640   -0.3387    0.1442 C.ar      1 <0>        -0.0835
      5 C5          1.3573   -1.0055    0.1108 C.ar      1 <0>        -0.0797
      6 C6          0.1642   -0.2909    0.2409 C.ar      1 <0>        -0.0135
      7 C7         -1.1312   -0.9984    0.2069 C.2       1 <0>         0.1418
      8 C8         -1.5448   -1.9119   -0.7592 C.ar      1 <0>        -0.2053
      9 C9         -0.9670   -2.4529   -1.9346 C.ar      1 <0>         0.0192
     10 C10        -1.7129   -3.3696   -2.6605 C.ar      1 <0>        -0.1276
     11 C11        -2.9938   -3.7345   -2.2275 C.ar      1 <0>         0.1677
     12 N1         -3.5397   -3.2369   -1.1359 N.ar      1 <0>        -0.4275
     13 C12        -2.8959   -2.3475   -0.3729 C.ar      1 <0>         0.2703
     14 N2         -3.1985   -1.7036    0.7443 N.2       1 <0>        -0.2792
     15 H1         -2.1044   -0.3115    1.8937 H         1 <0>         0.4423
     16 N3         -2.1271   -0.8819    1.1094 N.pl3     1 <0>        -0.4097
     17 C13        -3.7637   -4.7155   -3.0261 C.2       1 <0>         0.5324
     18 O1         -3.2791   -5.1909   -4.0426 O.co2     1 <0>        -0.6732
     19 O2         -4.8837   -5.0499   -2.6688 O.co2     1 <0>        -0.6483
     20 C14         0.3889   -2.0523   -2.3738 C.ar      1 <0>        -0.0193
     21 C15         1.4348   -2.9755   -2.3483 C.ar      1 <0>        -0.0823
     22 C16         2.6958   -2.5969   -2.7585 C.ar      1 <0>        -0.1047
     23 C17         2.9261   -1.3028   -3.1955 C.ar      1 <0>        -0.0218
     24 C18         1.8932   -0.3817   -3.2234 C.ar      1 <0>        -0.0995
     25 C19         0.6248   -0.7507   -2.8205 C.ar      1 <0>        -0.0053
     26 Cl1        -0.6718    0.4029   -2.8633 Cl        1 <0>        -0.0461
     27 Cl2         4.5165   -0.8340   -3.7097 Cl        1 <0>        -0.0616
     28 Br1         4.2537    1.9424    0.3489 Br        1 <0>        -0.0493
     29 H2         -0.7168    1.6536    0.5084 H         1 <0>         0.1318
     30 H3          1.4459    2.8229    0.5596 H         1 <0>         0.1361
     31 H4          3.4873   -0.8901    0.0441 H         1 <0>         0.1360
     32 H5          1.3349   -2.0778   -0.0157 H         1 <0>         0.1365
     33 H6         -1.3052   -3.8027   -3.5619 H         1 <0>         0.1501
     34 H7          1.2571   -3.9849   -2.0075 H         1 <0>         0.1474
     35 H8          3.5058   -3.3110   -2.7386 H         1 <0>         0.1422
     36 H9          2.0784    0.6259   -3.5651 H         1 <0>         0.1415
@<TRIPOS>BOND
     1    1    6 ar
     2    1    2 ar
     3    1   29 1
     4    2    3 ar
     5    2   30 1
     6    3    4 ar
     7    3   28 1
     8    4    5 ar
     9    4   31 1
    10    5    6 ar
    11    5   32 1
    12    6    7 1
    13    7    8 2
    14    7   16 1
    15    8    9 ar
    16    8   13 ar
    17    9   10 ar
    18    9   20 1
    19   10   11 ar
    20   10   33 1
    21   11   12 ar
    22   11   17 1
    23   12   13 ar
    24   13   14 2
    25   14   16 1
    26   15   16 1
    27   17   18 2
    28   17   19 1
    29   20   25 ar
    30   20   21 ar
    31   21   22 ar
    32   21   34 1
    33   22   23 ar
    34   22   35 1
    35   23   24 ar
    36   23   27 1
    37   24   25 ar
    38   24   36 1
    39   25   26 1
@<TRIPOS>MOLECULE
ZINC38742517
   53    56     0     0     0
SMALL
USER_CHARGES

@<TRIPOS>ATOM
      1 C1         -0.0187    1.5258    0.0104 C.3       1 <0>        -0.1356
      2 C2          0.0021   -0.0041    0.0020 C.3       1 <0>         0.0171
      3 C3          0.7421   -0.5109    1.2415 C.3       1 <0>        -0.1363
      4 C4         -1.4333   -0.5336    0.0129 C.3       1 <0>        -0.1358
      5 C5          0.7074   -0.4901   -1.2379 C.2       1 <0>         0.0904
      6 C6          2.0891   -0.4706   -1.4522 C.2       1 <0>        -0.2744
      7 C7          2.3280   -0.9928   -2.6860 C.2       1 <0>         0.3331
      8 N1          1.1231   -1.3293   -3.2266 N.pl3     1 <0>        -0.3121
      9 N2          0.1306   -1.0063   -2.2923 N.2       1 <0>        -0.2411
     10 C8          0.9159   -1.8977   -4.4823 C.ar      1 <0>         0.5709
     11 N3          1.9594   -2.1569   -5.2541 N.ar      1 <0>        -0.6495
     12 C9          1.7908   -2.6951   -6.4540 C.ar      1 <0>         0.4657
     13 O1          2.8603   -2.9581   -7.2435 O.3       1 <0>        -0.6805
     14 C10         0.4965   -2.9887   -6.8956 C.ar      1 <0>        -0.2912
     15 C11        -0.5603   -2.7093   -6.0628 C.ar      1 <0>         0.1905
     16 N4         -0.3170   -2.1700   -4.8713 N.ar      1 <0>        -0.5879
     17 C12        -1.9876   -3.0020   -6.4384 C.3       1 <0>        -0.0597
     18 C13        -2.1125   -3.2057   -7.9476 C.3       1 <0>        -0.1142
     19 C14        -1.0618   -4.2312   -8.3890 C.3       1 <0>        -0.1192
     20 C15         0.3208   -3.5928   -8.2612 C.3       1 <0>        -0.0355
     21 N5          3.5745   -1.1531   -3.2861 N.am      1 <0>        -0.6267
     22 C16         4.6907   -0.7740   -2.6327 C.2       1 <0>         0.5657
     23 O2          4.6095   -0.2922   -1.5195 O.2       1 <0>        -0.5092
     24 C17         6.0137   -0.9441   -3.2696 C.ar      1 <0>        -0.1052
     25 C18         6.1098   -1.4917   -4.5499 C.ar      1 <0>        -0.0650
     26 C19         7.3485   -1.6476   -5.1398 C.ar      1 <0>        -0.0287
     27 C20         8.4937   -1.2626   -4.4638 C.ar      1 <0>        -0.0778
     28 C21         8.4049   -0.7193   -3.1934 C.ar      1 <0>        -0.0364
     29 C22         7.1715   -0.5526   -2.5955 C.ar      1 <0>        -0.0452
     30 Cl1         9.8466   -0.2400   -2.3535 Cl        1 <0>        -0.0526
     31 Cl2         7.4701   -2.3284   -6.7322 Cl        1 <0>        -0.0379
     32 H1          1.0039    1.9031    0.0027 H         1 <0>         0.0602
     33 H2         -0.5459    1.8868   -0.8726 H         1 <0>         0.0563
     34 H3         -0.5289    1.8773    0.9072 H         1 <0>         0.0603
     35 H4          0.2319   -0.1594    2.1383 H         1 <0>         0.0595
     36 H5          0.7568   -1.6008    1.2356 H         1 <0>         0.0563
     37 H6          1.7647   -0.1336    1.2338 H         1 <0>         0.0626
     38 H7         -1.9605   -0.1726   -0.8702 H         1 <0>         0.0629
     39 H8         -1.4185   -1.6235    0.0069 H         1 <0>         0.0568
     40 H9         -1.9435   -0.1821    0.9097 H         1 <0>         0.0545
     41 H10         2.8345   -0.1053   -0.7613 H         1 <0>         0.1764
     42 H11        -2.3175   -3.9048   -5.9245 H         1 <0>         0.0757
     43 H12        -2.6187   -2.1669   -6.1342 H         1 <0>         0.0772
     44 H13        -3.1092   -3.5769   -8.1858 H         1 <0>         0.0636
     45 H14        -1.9388   -2.2596   -8.4604 H         1 <0>         0.0629
     46 H15        -1.1190   -5.1124   -7.7500 H         1 <0>         0.0593
     47 H16        -1.2399   -4.5149   -9.4263 H         1 <0>         0.0594
     48 H17         0.4295   -2.8143   -9.0163 H         1 <0>         0.0558
     49 H18         1.0851   -4.3536   -8.4198 H         1 <0>         0.0670
     50 H19         3.6394   -1.5375   -4.1743 H         1 <0>         0.4353
     51 H20         5.2172   -1.7930   -5.0780 H         1 <0>         0.1571
     52 H21         9.4603   -1.3869   -4.9292 H         1 <0>         0.1493
     53 H22         7.1031   -0.1245   -1.6063 H         1 <0>         0.1559
@<TRIPOS>BOND
     1    1    2 1
     2    1   32 1
     3    1   33 1
     4    1   34 1
     5    2    3 1
     6    2    4 1
     7    2    5 1
     8    3   35 1
     9    3   36 1
    10    3   37 1
    11    4   38 1
    12    4   39 1
    13    4   40 1
    14    5    9 2
    15    5    6 1
    16    6    7 2
    17    6   41 1
    18    7    8 1
    19    7   21 1
    20    8    9 1
    21    8   10 1
    22   10   16 ar
    23   10   11 ar
    24   11   12 ar
    25   12   13 1
    26   12   14 ar
    27   14   20 1
    28   14   15 ar
    29   15   16 ar
    30   15   17 1
    31   17   18 1
    32   17   42 1
    33   17   43 1
    34   18   19 1
    35   18   44 1
    36   18   45 1
    37   19   20 1
    38   19   46 1
    39   19   47 1
    40   20   48 1
    41   20   49 1
    42   21   22 am
    43   21   50 1
    44   22   23 2
    45   22   24 1
    46   24   29 ar
    47   24   25 ar
    48   25   26 ar
    49   25   51 1
    50   26   27 ar
    51   26   31 1
    52   27   28 ar
    53   27   52 1
    54   28   29 ar
    55   28   30 1
    56   29   53 1
@<TRIPOS>MOLECULE
ZINC40123646
   68    70     0     0     0
SMALL
USER_CHARGES

@<TRIPOS>ATOM
      1 C1          7.7007   -2.4332   -0.5420 C.3       1 <0>        -0.1509
      2 C2          6.4428   -3.3038   -0.5211 C.3       1 <0>         0.0529
      3 O1          5.7414   -3.1572   -1.7575 O.3       1 <0>        -0.3140
      4 C3          4.6487   -3.9402   -1.9425 C.ar      1 <0>         0.1407
      5 C4          4.1952   -4.7531   -0.9092 C.ar      1 <0>        -0.2212
      6 C5          3.0869   -5.5485   -1.0925 C.ar      1 <0>        -0.0298
      7 C6          2.4168   -5.5384   -2.3199 C.ar      1 <0>        -0.1686
      8 C7          2.8760   -4.7197   -3.3559 C.ar      1 <0>        -0.0366
      9 C8          3.9822   -3.9232   -3.1625 C.ar      1 <0>        -0.1350
     10 C9          4.4747   -3.0360   -4.2766 C.3       1 <0>        -0.0995
     11 C10         1.2281   -6.3902   -2.5211 C.2       1 <0>         0.5076
     12 O2          0.6831   -6.4273   -3.6086 O.2       1 <0>        -0.4758
     13 C11         0.7039   -7.1916   -1.4106 C.2       1 <0>        -0.5002
     14 C12         0.6914   -8.5421   -1.3254 C.2       1 <0>         0.2595
     15 C13         0.0748   -8.9421   -0.0431 C.2       1 <0>         0.5117
     16 O3         -0.0814  -10.0885    0.3278 O.2       1 <0>        -0.5404
     17 N1         -0.2879   -7.8492    0.6527 N.am      1 <0>        -0.7244
     18 C14         0.0795   -6.6686   -0.1380 C.3       1 <0>         0.2623
     19 H1          0.7980   -6.0575    0.4084 H         1 <0>         0.0704
     20 C15        -1.1512   -5.8602   -0.4588 C.ar      1 <0>        -0.0729
     21 C16        -2.3476   -6.5005   -0.7243 C.ar      1 <0>        -0.0877
     22 C17        -3.4771   -5.7618   -1.0191 C.ar      1 <0>        -0.0925
     23 C18        -3.4103   -4.3764   -1.0482 C.ar      1 <0>         0.1022
     24 C19        -2.2088   -3.7363   -0.7811 C.ar      1 <0>        -0.0934
     25 C20        -1.0834   -4.4794   -0.4817 C.ar      1 <0>        -0.1078
     26 C21        -2.1328   -2.2316   -0.8119 C.3       1 <0>        -0.0172
     27 C22        -0.7023   -1.7867   -0.5006 C.3       1 <0>        -0.1444
     28 C23        -2.5323   -1.7291   -2.2007 C.3       1 <0>        -0.1402
     29 C24        -3.0864   -1.6512    0.2343 C.3       1 <0>        -0.1381
     30 O4         -4.5200   -3.6474   -1.3384 O.3       1 <0>        -0.4861
     31 C25        -4.7805   -6.4603   -1.3093 C.3       1 <0>        -0.0186
     32 C26        -4.5805   -7.9741   -1.2124 C.3       1 <0>        -0.1464
     33 C27        -5.8335   -6.0188   -0.2908 C.3       1 <0>        -0.1374
     34 C28        -5.2509   -6.0971   -2.7191 C.3       1 <0>        -0.1395
     35 O5          1.1677   -9.3913   -2.2649 O.3       1 <0>        -0.6558
     36 H2          8.3448   -2.7450   -1.3643 H         1 <0>         0.0649
     37 H3          7.4179   -1.3893   -0.6778 H         1 <0>         0.0646
     38 H4          8.2357   -2.5450    0.4010 H         1 <0>         0.0759
     39 H5          6.7256   -4.3477   -0.3854 H         1 <0>         0.0625
     40 H6          5.7987   -2.9920    0.3011 H         1 <0>         0.0612
     41 H7          4.7136   -4.7606    0.0382 H         1 <0>         0.1267
     42 H8          2.7356   -6.1798   -0.2897 H         1 <0>         0.1359
     43 H9          2.3614   -4.7093   -4.3054 H         1 <0>         0.1349
     44 H10         5.1955   -3.5827   -4.8847 H         1 <0>         0.0642
     45 H11         3.6324   -2.7312   -4.8977 H         1 <0>         0.0633
     46 H12         4.9525   -2.1525   -3.8533 H         1 <0>         0.0661
     47 H13        -0.7131   -7.8426    1.5245 H         1 <0>         0.4052
     48 H14        -2.3990   -7.5790   -0.7014 H         1 <0>         0.1261
     49 H15        -0.1488   -3.9816   -0.2693 H         1 <0>         0.1253
     50 H16        -0.0288   -2.1648   -1.2697 H         1 <0>         0.0601
     51 H17        -0.6566   -0.6979   -0.4809 H         1 <0>         0.0535
     52 H18        -0.4025   -2.1807    0.4705 H         1 <0>         0.0568
     53 H19        -3.5514   -2.0460   -2.4225 H         1 <0>         0.0739
     54 H20        -2.4773   -0.6407   -2.2230 H         1 <0>         0.0482
     55 H21        -1.8529   -2.1426   -2.9461 H         1 <0>         0.0521
     56 H22        -2.8018   -2.0091    1.2237 H         1 <0>         0.0521
     57 H23        -3.0314   -0.5628    0.2120 H         1 <0>         0.0549
     58 H24        -4.1055   -1.9681    0.0125 H         1 <0>         0.0563
     59 H25        -5.0473   -3.4085   -0.5638 H         1 <0>         0.3720
     60 H26        -4.2454   -8.2328   -0.2080 H         1 <0>         0.0560
     61 H27        -5.5233   -8.4793   -1.4223 H         1 <0>         0.0544
     62 H28        -3.8304   -8.2886   -1.9380 H         1 <0>         0.0621
     63 H29        -5.9760   -4.9404   -0.3598 H         1 <0>         0.0562
     64 H30        -6.7763   -6.5240   -0.5007 H         1 <0>         0.0553
     65 H31        -5.4984   -6.2775    0.7136 H         1 <0>         0.0516
     66 H32        -4.5007   -6.4116   -3.4447 H         1 <0>         0.0532
     67 H33        -6.1937   -6.6023   -2.9290 H         1 <0>         0.0488
     68 H34        -5.3934   -5.0187   -2.7881 H         1 <0>         0.0726
@<TRIPOS>BOND
     1    1    2 1
     2    1   36 1
     3    1   37 1
     4    1   38 1
     5    2    3 1
     6    2   39 1
     7    2   40 1
     8    3    4 1
     9    4    9 ar
    10    4    5 ar
    11    5    6 ar
    12    5   41 1
    13    6    7 ar
    14    6   42 1
    15    7    8 ar
    16    7   11 1
    17    8    9 ar
    18    8   43 1
    19    9   10 1
    20   10   44 1
    21   10   45 1
    22   10   46 1
    23   11   12 2
    24   11   13 1
    25   13   18 1
    26   13   14 2
    27   14   15 1
    28   14   35 1
    29   15   16 2
    30   15   17 am
    31   17   18 1
    32   17   47 1
    33   18   19 1
    34   18   20 1
    35   20   25 ar
    36   20   21 ar
    37   21   22 ar
    38   21   48 1
    39   22   23 ar
    40   22   31 1
    41   23   24 ar
    42   23   30 1
    43   24   25 ar
    44   24   26 1
    45   25   49 1
    46   26   27 1
    47   26   28 1
    48   26   29 1
    49   27   50 1
    50   27   51 1
    51   27   52 1
    52   28   53 1
    53   28   54 1
    54   28   55 1
    55   29   56 1
    56   29   57 1
    57   29   58 1
    58   30   59 1
    59   31   32 1
    60   31   33 1
    61   31   34 1
    62   32   60 1
    63   32   61 1
    64   32   62 1
    65   33   63 1
    66   33   64 1
    67   33   65 1
    68   34   66 1
    69   34   67 1
    70   34   68 1
@<TRIPOS>MOLECULE
ZINC59327730
   52    56     0     0     0
SMALL
USER_CHARGES

@<TRIPOS>ATOM
      1 C1         -0.0187    1.5258    0.0104 C.3       1 <0>        -0.1397
      2 C2          0.0021   -0.0041    0.0020 C.3       1 <0>        -0.0314
      3 C3          0.7421   -0.5109    1.2415 C.3       1 <0>        -0.1397
      4 C4         -1.4333   -0.5336    0.0129 C.3       1 <0>        -0.1459
      5 C5          0.7074   -0.4901   -1.2379 C.ar      1 <0>        -0.0635
      6 C6          0.0327   -1.2849   -2.1474 C.ar      1 <0>        -0.1160
      7 C7          0.6727   -1.7331   -3.2844 C.ar      1 <0>        -0.0896
      8 C8          2.0036   -1.3831   -3.5161 C.ar      1 <0>        -0.0361
      9 C9          2.6785   -0.5812   -2.5949 C.ar      1 <0>        -0.1077
     10 C10         2.0253   -0.1349   -1.4645 C.ar      1 <0>        -0.1085
     11 C11         2.6960   -1.8605   -4.7329 C.2       1 <0>         0.1259
     12 C12         2.0692   -2.6341   -5.6469 C.2       1 <0>        -0.2662
     13 S1          3.3527   -2.8936   -6.8566 S.3       1 <0>         0.1897
     14 C13         4.5820   -2.0112   -6.1249 C.2       1 <0>         0.3629
     15 N1          3.9995   -1.5356   -4.9896 N.pl3     1 <0>        -0.6131
     16 N2          5.8254   -1.8188   -6.5549 N.2       1 <0>        -0.5928
     17 C14         6.2262   -2.3643   -7.7100 C.2       1 <0>         0.5685
     18 O1          5.4503   -3.0381   -8.3682 O.2       1 <0>        -0.5192
     19 C15         7.6023   -2.1513   -8.1860 C.2       1 <0>        -0.3437
     20 C16         8.6053   -1.4087   -7.5376 C.2       1 <0>         0.1431
     21 N3          9.6895   -1.4482   -8.2639 N.2       1 <0>        -0.3455
     22 N4          9.4525   -2.2116   -9.4134 N.pl3     1 <0>        -0.3678
     23 C17         8.1639   -2.6568   -9.3715 C.2       1 <0>         0.4185
     24 N5          7.6413   -3.4229  -10.3382 N.2       1 <0>        -0.5872
     25 C18         8.3401   -3.7975  -11.3886 C.2       1 <0>         0.4788
     26 O2          7.7813   -4.5713  -12.3470 O.3       1 <0>        -0.6417
     27 C19         9.7361   -3.3605  -11.5017 C.ar      1 <0>        -0.1711
     28 C20        10.2655   -2.5489  -10.4804 C.ar      1 <0>         0.2050
     29 C21        11.5838   -2.1215  -10.5588 C.ar      1 <0>        -0.1478
     30 C22        12.3538   -2.4846  -11.6442 C.ar      1 <0>        -0.0812
     31 C23        11.8242   -3.2718  -12.6569 C.ar      1 <0>        -0.1629
     32 C24        10.5344   -3.7208  -12.5884 C.ar      1 <0>        -0.0330
     33 H1          1.0039    1.9031    0.0027 H         1 <0>         0.0576
     34 H2         -0.5459    1.8868   -0.8726 H         1 <0>         0.0574
     35 H3         -0.5289    1.8773    0.9072 H         1 <0>         0.0589
     36 H4          0.2319   -0.1594    2.1383 H         1 <0>         0.0589
     37 H5          0.7568   -1.6008    1.2356 H         1 <0>         0.0574
     38 H6          1.7647   -0.1336    1.2338 H         1 <0>         0.0576
     39 H7         -1.9605   -0.1726   -0.8702 H         1 <0>         0.0599
     40 H8         -1.4185   -1.6235    0.0069 H         1 <0>         0.0599
     41 H9         -1.9435   -0.1821    0.9097 H         1 <0>         0.0586
     42 H10        -0.9972   -1.5553   -1.9667 H         1 <0>         0.1328
     43 H11         0.1450   -2.3538   -3.9934 H         1 <0>         0.1319
     44 H12         3.7085   -0.3068   -2.7685 H         1 <0>         0.1211
     45 H13         2.5451    0.4895   -0.7529 H         1 <0>         0.1256
     46 H14         1.0533   -3.0006   -5.6448 H         1 <0>         0.1969
     47 H15         4.5008   -0.9797   -4.3727 H         1 <0>         0.4137
     48 H16         8.4966   -0.8915   -6.5958 H         1 <0>         0.1880
     49 H17        12.0038   -1.5084   -9.7752 H         1 <0>         0.1343
     50 H18        13.3796   -2.1524  -11.7066 H         1 <0>         0.1255
     51 H19        12.4418   -3.5460  -13.4994 H         1 <0>         0.1240
     52 H20        10.1313   -4.3382  -13.3776 H         1 <0>         0.1391
@<TRIPOS>BOND
     1    1    2 1
     2    1   33 1
     3    1   34 1
     4    1   35 1
     5    2    3 1
     6    2    4 1
     7    2    5 1
     8    3   36 1
     9    3   37 1
    10    3   38 1
    11    4   39 1
    12    4   40 1
    13    4   41 1
    14    5   10 ar
    15    5    6 ar
    16    6    7 ar
    17    6   42 1
    18    7    8 ar
    19    7   43 1
    20    8    9 ar
    21    8   11 1
    22    9   10 ar
    23    9   44 1
    24   10   45 1
    25   11   15 1
    26   11   12 2
    27   12   46 1
    28   12   13 1
    29   13   14 1
    30   14   15 1
    31   14   16 2
    32   15   47 1
    33   16   17 1
    34   17   19 1
    35   17   18 2
    36   19   23 2
    37   19   20 1
    38   20   21 2
    39   20   48 1
    40   21   22 1
    41   22   28 1
    42   22   23 1
    43   23   24 1
    44   24   25 2
    45   25   26 1
    46   25   27 1
    47   27   32 ar
    48   27   28 ar
    49   28   29 ar
    50   29   30 ar
    51   29   49 1
    52   30   31 ar
    53   30   50 1
    54   31   32 ar
    55   31   51 1
    56   32   52 1
@<TRIPOS>MOLECULE
ZINC09318162
   48    52     0     0     0
SMALL
USER_CHARGES

@<TRIPOS>ATOM
      1 C1         -0.0167    1.3796    0.0096 C.ar      1 <0>        -0.1184
      2 C2          1.1682    2.0943    0.0022 C.ar      1 <0>        -0.1385
      3 C3          2.3774    1.4309   -0.0134 C.ar      1 <0>        -0.0765
      4 C4          2.4040    0.0343   -0.0212 C.ar      1 <0>        -0.0548
      5 C5          1.2039   -0.6807   -0.0131 C.ar      1 <0>        -0.0747
      6 C6          0.0021   -0.0041    0.0020 C.ar      1 <0>        -0.1410
      7 C7          3.6940   -0.6827   -0.0384 C.2       1 <0>         0.4561
      8 O1          4.8536    0.0124   -0.0466 O.3       1 <0>        -0.6612
      9 N1          3.7154   -1.9943   -0.0456 N.2       1 <0>        -0.6432
     10 C8          4.9043   -2.6550   -0.0615 C.2       1 <0>         0.5065
     11 N2          6.0854   -2.0944   -0.0649 N.2       1 <0>        -0.2942
     12 N3          7.0501   -3.1035   -0.0817 N.pl3     1 <0>        -0.4482
     13 C9          8.5192   -3.0909   -0.0933 C.3       1 <0>         0.2831
     14 H1          8.8456   -2.5342   -0.9718 H         1 <0>         0.0737
     15 C10         9.2055   -4.4441   -0.1119 C.2       1 <0>        -0.3175
     16 C11         8.4185   -5.5373   -0.1163 C.2       1 <0>         0.2176
     17 N4          7.0657   -5.4396   -0.1050 N.2       1 <0>        -0.6540
     18 C12         6.4040   -4.3049   -0.0883 C.2       1 <0>         0.5785
     19 N5          5.0602   -4.0282   -0.0705 N.pl3     1 <0>        -0.6178
     20 C13         9.0469   -6.8815   -0.1343 C.ar      1 <0>        -0.0182
     21 C14        10.4350   -7.0041   -0.1408 C.ar      1 <0>        -0.0949
     22 C15        11.0146   -8.2563   -0.1576 C.ar      1 <0>        -0.1152
     23 C16        10.2194   -9.3896   -0.1681 C.ar      1 <0>        -0.0370
     24 C17         8.8399   -9.2729   -0.1618 C.ar      1 <0>        -0.1181
     25 C18         8.2509   -8.0253   -0.1391 C.ar      1 <0>        -0.0704
     26 Cl1        10.9546  -10.9621   -0.1899 Cl        1 <0>        -0.0818
     27 C19         8.9898   -2.3458    1.1292 C.ar      1 <0>        -0.0756
     28 C20         8.3466   -2.5274    2.3393 C.ar      1 <0>        -0.0715
     29 C21         8.7778   -1.8443    3.4608 C.ar      1 <0>        -0.1088
     30 C22         9.8533   -0.9786    3.3722 C.ar      1 <0>        -0.0360
     31 C23        10.4966   -0.7972    2.1609 C.ar      1 <0>        -0.1113
     32 C24        10.0681   -1.4851    1.0413 C.ar      1 <0>        -0.0961
     33 Cl2        10.3950   -0.1198    4.7803 Cl        1 <0>        -0.0825
     34 H2         -0.9606    1.9042    0.0260 H         1 <0>         0.1151
     35 H3          1.1462    3.1740    0.0082 H         1 <0>         0.1182
     36 H4          3.3015    1.9900   -0.0200 H         1 <0>         0.1301
     37 H5          1.2171   -1.7606   -0.0194 H         1 <0>         0.1351
     38 H6         -0.9265   -0.5555    0.0083 H         1 <0>         0.1181
     39 H7         10.2822   -4.5275   -0.1216 H         1 <0>         0.1417
     40 H8          4.3442   -4.6826   -0.0665 H         1 <0>         0.4319
     41 H9         11.0561   -6.1206   -0.1330 H         1 <0>         0.1362
     42 H10        12.0903   -8.3524   -0.1630 H         1 <0>         0.1320
     43 H11         8.2238  -10.1599   -0.1704 H         1 <0>         0.1312
     44 H12         7.1747   -7.9353   -0.1293 H         1 <0>         0.1452
     45 H13         7.5068   -3.2030    2.4083 H         1 <0>         0.1176
     46 H14         8.2749   -1.9861    4.4061 H         1 <0>         0.1280
     47 H15        11.3361   -0.1213    2.0910 H         1 <0>         0.1308
     48 H16        10.5732   -1.3472    0.0967 H         1 <0>         0.1312
@<TRIPOS>BOND
     1    1    6 ar
     2    1    2 ar
     3    1   34 1
     4    2    3 ar
     5    2   35 1
     6    3    4 ar
     7    3   36 1
     8    4    5 ar
     9    4    7 1
    10    5    6 ar
    11    5   37 1
    12    6   38 1
    13    7    8 1
    14    7    9 2
    15    9   10 1
    16   10   19 1
    17   10   11 2
    18   11   12 1
    19   12   18 1
    20   12   13 1
    21   13   14 1
    22   13   15 1
    23   13   27 1
    24   15   16 2
    25   15   39 1
    26   16   17 1
    27   16   20 1
    28   17   18 2
    29   18   19 1
    30   19   40 1
    31   20   25 ar
    32   20   21 ar
    33   21   22 ar
    34   21   41 1
    35   22   23 ar
    36   22   42 1
    37   23   24 ar
    38   23   26 1
    39   24   25 ar
    40   24   43 1
    41   25   44 1
    42   27   32 ar
    43   27   28 ar
    44   28   29 ar
    45   28   45 1
    46   29   30 ar
    47   29   46 1
    48   30   31 ar
    49   30   33 1
    50   31   32 ar
    51   31   47 1
    52   32   48 1
@<TRIPOS>MOLECULE
ZINC13248116
   51    54     0     0     0
SMALL
USER_CHARGES
4-chloro-3-[[2-[1-(1,5-dimethyl-3-oxo-2-phenyl-pyrazol-4-yl)tetrazol-5-yl]sulfanylacetyl]amino]benzoic acid
@<TRIPOS>ATOM
      1 C1          6.2366    9.6438    2.9997 C.3       1 <0>        -0.1086
      2 C2          6.7294    9.1590    1.6607 C.2       1 <0>         0.2504
      3 C3          5.9607    8.9170    0.5747 C.2       1 <0>        -0.1270
      4 C4          6.8108    8.4833   -0.4754 C.2       1 <0>         0.5523
      5 O1          6.4637    8.1792   -1.6023 O.2       1 <0>        -0.4988
      6 N1          8.0725    8.4680    0.0005 N.am      1 <0>        -0.3594
      7 N2          8.0312    8.8862    1.3369 N.pl3     1 <0>        -0.3736
      8 C5          9.1836    9.0150    2.2322 C.3       1 <0>         0.0900
      9 C6          9.2177    8.1000   -0.7127 C.ar      1 <0>         0.1476
     10 C7         10.4080    8.7898   -0.5219 C.ar      1 <0>        -0.1398
     11 C8         11.5388    8.4198   -1.2233 C.ar      1 <0>        -0.1009
     12 C9         11.4837    7.3715   -2.1235 C.ar      1 <0>        -0.1192
     13 C10        10.2986    6.6867   -2.3204 C.ar      1 <0>        -0.0910
     14 C11         9.1658    7.0476   -1.6176 C.ar      1 <0>        -0.1029
     15 N3          4.5635    9.0737    0.4978 N.pl3     1 <0>        -0.2651
     16 C12         3.6365    8.1057    0.2951 C.2       1 <0>         0.2150
     17 N4          2.4593    8.6937    0.2889 N.2       1 <0>        -0.3385
     18 N5          2.5865    9.9569    0.4825 N.2       1 <0>        -0.0308
     19 N6          3.8305   10.2676    0.6147 N.2       1 <0>        -0.0825
     20 S1          3.9494    6.3859    0.0740 S.3       1 <0>         0.1432
     21 C13         2.2555    5.7822   -0.1316 C.3       1 <0>        -0.1598
     22 C14         2.2760    4.2900   -0.3412 C.2       1 <0>         0.5289
     23 O2          3.3319    3.6933   -0.3506 O.2       1 <0>        -0.4906
     24 N7          1.1209    3.6184   -0.5181 N.am      1 <0>        -0.6582
     25 C15         1.1340    2.2240   -0.6437 C.ar      1 <0>         0.1297
     26 C16         2.1963    1.5950   -1.2723 C.ar      1 <0>        -0.0733
     27 C17         2.2044    0.2049   -1.3958 C.ar      1 <0>        -0.0895
     28 C18         1.1414   -0.5435   -0.8844 C.ar      1 <0>        -0.0759
     29 C19         0.0885    0.0916   -0.2598 C.ar      1 <0>        -0.1112
     30 C20         0.0802    1.4702   -0.1376 C.ar      1 <0>        -0.0606
     31 Cl1        -1.2530    2.2616    0.6433 Cl        1 <0>        -0.0836
     32 C21         3.3332   -0.4729   -2.0646 C.2       1 <0>         0.4894
     33 O3          4.2565    0.1798   -2.5086 O.co2     1 <0>        -0.6202
     34 H1          5.1547    9.7721    2.9640 H         1 <0>         0.0963
     35 H2          6.4906    8.9124    3.7669 H         1 <0>         0.0999
     36 H3          6.7079   10.5976    3.2368 H         1 <0>         0.1008
     37 H4          9.5442   10.0435    2.2146 H         1 <0>         0.0836
     38 H5          8.8864    8.7515    3.2473 H         1 <0>         0.1040
     39 H6          9.9777    8.3459    1.9009 H         1 <0>         0.0983
     40 H7         10.4506    9.6114    0.1777 H         1 <0>         0.1260
     41 H8         12.4658    8.9528   -1.0721 H         1 <0>         0.1317
     42 H9         12.3684    7.0868   -2.6738 H         1 <0>         0.1309
     43 H10        10.2589    5.8684   -3.0241 H         1 <0>         0.1383
     44 H11         8.2407    6.5119   -1.7713 H         1 <0>         0.1413
     45 H12         1.8004    6.2644   -0.9967 H         1 <0>         0.1348
     46 H13         1.6756    6.0157    0.7614 H         1 <0>         0.1342
     47 H14         0.2805    4.1011   -0.5585 H         1 <0>         0.4122
     48 H15         3.0156    2.1786   -1.6655 H         1 <0>         0.1554
     49 H16         1.1440   -1.6194   -0.9784 H         1 <0>         0.1433
     50 H17        -0.7324   -0.4886    0.1350 H         1 <0>         0.1335
     51 O4          3.3390   -1.8149   -2.1823 O.co2     1 <0>        -0.7502
@<TRIPOS>BOND
     1    1    2 1
     2    1   34 1
     3    1   35 1
     4    1   36 1
     5    2    7 1
     6    2    3 2
     7    3    4 1
     8    3   15 1
     9    4    5 2
    10    4    6 am
    11    6    7 1
    12    6    9 1
    13    7    8 1
    14    8   37 1
    15    8   38 1
    16    8   39 1
    17    9   14 ar
    18    9   10 ar
    19   10   11 ar
    20   10   40 1
    21   11   12 ar
    22   11   41 1
    23   12   13 ar
    24   12   42 1
    25   13   14 ar
    26   13   43 1
    27   14   44 1
    28   15   19 1
    29   15   16 1
    30   16   17 2
    31   16   20 1
    32   17   18 1
    33   18   19 2
    34   20   21 1
    35   21   22 1
    36   21   45 1
    37   21   46 1
    38   22   23 2
    39   22   24 am
    40   24   25 1
    41   24   47 1
    42   25   30 ar
    43   25   26 ar
    44   26   27 ar
    45   26   48 1
    46   27   28 ar
    47   27   32 1
    48   28   29 ar
    49   28   49 1
    50   29   30 ar
    51   29   50 1
    52   30   31 1
    53   32   33 2
    54   32   51 1
@<TRIPOS>MOLECULE
ZINC28841595
   52    56     0     0     0
SMALL
USER_CHARGES
N-[2-[[(6-cyclopropyl-3-methyl-isoxazolo[5,4-b]pyridine-4-carbonyl)amino]carbamoyl]phenyl]thiophene-2-sulfonamide
@<TRIPOS>ATOM
      1 C1         -5.6023   -2.9900   -0.6127 C.3       1 <0>        -0.1939
      2 C2         -5.1789   -4.4143   -0.8641 C.2       1 <0>         0.1722
      3 C3         -3.8214   -4.9469   -0.7542 C.ar      1 <0>        -0.2097
      4 C4         -2.5723   -4.3849   -0.4258 C.ar      1 <0>         0.0145
      5 C5         -1.4595   -5.2251   -0.4322 C.ar      1 <0>        -0.1832
      6 C6         -1.6228   -6.5612   -0.7621 C.ar      1 <0>         0.2167
      7 N1         -2.8020   -7.0574   -1.0692 N.ar      1 <0>        -0.4705
      8 C7         -3.8964   -6.3115   -1.0812 C.ar      1 <0>         0.2989
      9 O1         -5.1895   -6.5775   -1.3555 O.3       1 <0>        -0.0871
     10 N2         -5.9524   -5.3962   -1.2144 N.2       1 <0>        -0.2860
     11 C8         -0.4197   -7.4687   -0.7687 C.3       1 <0>        -0.2080
     12 C9          0.9614   -6.8105   -0.7856 C.3       1 <0>        -0.1133
     13 C10         0.4295   -7.5066   -2.0408 C.3       1 <0>        -0.1038
     14 C11        -2.4461   -2.9515   -0.0795 C.2       1 <0>         0.5506
     15 O2         -3.4421   -2.2659    0.0425 O.2       1 <0>        -0.5177
     16 N3         -1.2267   -2.4065    0.1006 N.am      1 <0>        -0.4966
     17 N4         -1.1072   -1.0496    0.4284 N.am      1 <0>        -0.5501
     18 C12         0.1122   -0.5047    0.6085 C.2       1 <0>         0.5671
     19 O3          1.1088   -1.1907    0.4864 O.2       1 <0>        -0.4939
     20 C13         0.2379    0.9232    0.9534 C.ar      1 <0>        -0.1952
     21 C14        -0.9042    1.7168    1.0891 C.ar      1 <0>        -0.0571
     22 C15        -0.7802    3.0490    1.4169 C.ar      1 <0>        -0.2078
     23 C16         0.4732    3.6109    1.6028 C.ar      1 <0>        -0.0563
     24 C17         1.6105    2.8421    1.4668 C.ar      1 <0>        -0.2443
     25 C18         1.5056    1.4952    1.1419 C.ar      1 <0>         0.2968
     26 N5          2.6490    0.7190    1.0049 N.2       1 <0>        -1.0081
     27 S1          3.9631    1.0028    1.9717 S.o2      1 <0>         2.6066
     28 O4          4.9037   -0.0245    1.6904 O.2       1 <0>        -0.9819
     29 O5          4.2776    2.3818    1.8352 O.2       1 <0>        -1.0315
     30 C19         3.4439    0.7673    3.6389 C.2       1 <0>        -0.6933
     31 C20         3.4571   -0.3641    4.3854 C.2       1 <0>        -0.0520
     32 C21         2.9962   -0.3134    5.6875 C.2       1 <0>        -0.1788
     33 C22         2.5446    0.8661    6.1796 C.2       1 <0>        -0.1771
     34 S2          2.7712    1.9586    4.7859 S.3       1 <0>         0.1301
     35 H1         -4.7239   -2.3906   -0.3314 H         1 <0>         0.2065
     36 H2         -6.3397   -2.9653    0.2032 H         1 <0>         0.0802
     37 H3         -6.0523   -2.5746   -1.5264 H         1 <0>         0.0777
     38 H4         -0.4820   -4.8394   -0.1827 H         1 <0>         0.1563
     39 H5         -0.9233   -8.2177   -0.1400 H         1 <0>         0.1440
     40 H6          0.8589   -5.7375   -0.5660 H         1 <0>         0.1086
     41 H7          1.6012   -7.2810   -0.0245 H         1 <0>         0.1162
     42 H8          0.6298   -8.5524   -2.3169 H         1 <0>         0.1123
     43 H9         -0.1125   -7.0088   -2.8584 H         1 <0>         0.1028
     44 H10        -0.3252   -3.0271   -0.0098 H         1 <0>         0.4564
     45 H11        -2.0087   -0.4290    0.5388 H         1 <0>         0.4486
     46 H12        -1.8831    1.2853    0.9412 H         1 <0>         0.1076
     47 H13        -1.6642    3.6600    1.5250 H         1 <0>         0.1097
     48 H14         0.5599    4.6574    1.8555 H         1 <0>         0.1096
     49 H15         2.5835    3.2877    1.6127 H         1 <0>         0.1526
     50 H16         3.8226   -1.2912    3.9690 H         1 <0>         0.1392
     51 H17         2.9962   -1.2003    6.3038 H         1 <0>         0.1316
     52 H18         2.1532    1.0883    7.1613 H         1 <0>         0.1840
@<TRIPOS>BOND
     1    1    2 1
     2    1   35 1
     3    1   36 1
     4    1   37 1
     5    2   10 2
     6    2    3 1
     7    3    8 ar
     8    3    4 ar
     9    4    5 ar
    10    4   14 1
    11    5    6 ar
    12    5   38 1
    13    6    7 ar
    14    6   11 1
    15    7    8 ar
    16    8    9 1
    17    9   10 1
    18   11   13 1
    19   11   12 1
    20   11   39 1
    21   12   13 1
    22   12   40 1
    23   12   41 1
    24   13   42 1
    25   13   43 1
    26   14   15 2
    27   14   16 am
    28   16   17 1
    29   16   44 1
    30   17   18 am
    31   17   45 1
    32   18   19 2
    33   18   20 1
    34   20   25 ar
    35   20   21 ar
    36   21   22 ar
    37   21   46 1
    38   22   23 ar
    39   22   47 1
    40   23   24 ar
    41   23   48 1
    42   24   25 ar
    43   24   49 1
    44   25   26 1
    45   26   27 1
    46   27   28 2
    47   27   29 2
    48   27   30 1
    49   30   34 1
    50   30   31 2
    51   31   32 1
    52   31   50 1
    53   32   33 2
    54   32   51 1
    55   33   34 1
    56   33   52 1
@<TRIPOS>MOLECULE
ZINC39483036
   49    50     0     0     0
SMALL
USER_CHARGES

@<TRIPOS>ATOM
      1 C1         -0.0187    1.5258    0.0104 C.3       1 <0>        -0.1479
      2 C2          0.0021   -0.0041    0.0020 C.3       1 <0>         0.0739
      3 O1          0.6932   -0.4774    1.1597 O.3       1 <0>        -0.7449
      4 S1          0.7749   -1.9943    1.2549 S.o2      1 <0>         2.7098
      5 O2          1.2962   -2.2929    2.5426 O.2       1 <0>        -1.0250
      6 O3         -0.4751   -2.4974    0.8036 O.2       1 <0>        -1.0580
      7 N1          1.9100   -2.4933    0.1573 N.2       1 <0>        -1.0871
      8 C3          2.2007   -3.8562    0.0214 C.ar      1 <0>         0.3284
      9 C4          1.5352   -4.7902    0.8007 C.ar      1 <0>        -0.2746
     10 C5          1.8236   -6.1356    0.6645 C.ar      1 <0>         0.0319
     11 C6          2.7747   -6.5541   -0.2475 C.ar      1 <0>        -0.7464
     12 C7          3.4431   -5.6295   -1.0287 C.ar      1 <0>         0.0088
     13 C8          3.1564   -4.2788   -0.9024 C.ar      1 <0>         0.0822
     14 N2          3.8282   -3.3412   -1.6963 N.pl3     1 <0>        -0.6365
     15 C9          5.0912   -2.7371   -1.2456 C.3       1 <0>         0.1128
     16 C10         6.1285   -2.8865   -2.3635 C.3       1 <0>         0.0412
     17 N3          5.5842   -2.3309   -3.6097 N.3       1 <0>        -0.6719
     18 C11         4.3979   -3.0760   -4.0518 C.3       1 <0>         0.1118
     19 H1          4.6532   -4.1289   -4.1712 H         1 <0>         0.1096
     20 C12         3.2928   -2.9389   -3.0058 C.3       1 <0>         0.1310
     21 I1          3.7099   -2.2817   -5.9413 I         1 <0>        -0.1431
     22 S2          3.1365   -8.2704   -0.4143 S.o2      1 <0>         2.5035
     23 O4          4.4719   -8.3141   -0.8982 O.2       1 <0>        -0.9555
     24 O5          2.8039   -8.8353    0.8464 O.2       1 <0>        -0.9515
     25 C13         1.9907   -8.8667   -1.6880 C.3       1 <0>        -0.5789
     26 C14         2.1303  -10.3837   -1.8297 C.3       1 <0>        -0.1426
     27 C15         0.5556   -8.5222   -1.2846 C.3       1 <0>        -0.1424
     28 H2          1.0039    1.9031    0.0027 H         1 <0>         0.0675
     29 H3         -0.5459    1.8868   -0.8726 H         1 <0>         0.0765
     30 H4         -0.5289    1.8773    0.9072 H         1 <0>         0.0643
     31 H5         -1.0205   -0.3814    0.0098 H         1 <0>         0.0839
     32 H6          0.5123   -0.3556   -0.8948 H         1 <0>         0.0834
     33 H7          0.7920   -4.4668    1.5144 H         1 <0>         0.1068
     34 H8          1.3046   -6.8618    1.2726 H         1 <0>         0.1229
     35 H9          4.1857   -5.9598   -1.7399 H         1 <0>         0.1223
     36 H10         4.9350   -1.6802   -1.0298 H         1 <0>         0.0483
     37 H11         5.4424   -3.2487   -0.3494 H         1 <0>         0.0742
     38 H12         7.0365   -2.3484   -2.0915 H         1 <0>         0.0834
     39 H13         6.3598   -3.9421   -2.5064 H         1 <0>         0.0779
     40 H14         5.3770   -1.3487   -3.5075 H         1 <0>         0.3444
     41 H15         2.4555   -3.5838   -3.2728 H         1 <0>         0.0770
     42 H16         2.9604   -1.9017   -2.9625 H         1 <0>         0.0546
     43 H17         2.2251   -8.3898   -2.6396 H         1 <0>         0.1342
     44 H18         1.8959  -10.8607   -0.8781 H         1 <0>         0.0717
     45 H19         1.4418  -10.7420   -2.5950 H         1 <0>         0.0776
     46 H20         3.1527  -10.6292   -2.1171 H         1 <0>         0.0677
     47 H21         0.3212   -8.9991   -0.3329 H         1 <0>         0.0721
     48 H22         0.4561   -7.4414   -1.1836 H         1 <0>         0.0788
     49 H23        -0.1329   -8.8805   -2.0499 H         1 <0>         0.0718
@<TRIPOS>BOND
     1    1    2 1
     2    1   28 1
     3    1   29 1
     4    1   30 1
     5    2    3 1
     6    2   31 1
     7    2   32 1
     8    3    4 1
     9    4    5 2
    10    4    6 2
    11    4    7 1
    12    7    8 1
    13    8   13 ar
    14    8    9 ar
    15    9   10 ar
    16    9   33 1
    17   10   11 ar
    18   10   34 1
    19   11   12 ar
    20   11   22 1
    21   12   13 ar
    22   12   35 1
    23   13   14 1
    24   14   20 1
    25   14   15 1
    26   15   16 1
    27   15   36 1
    28   15   37 1
    29   16   17 1
    30   16   38 1
    31   16   39 1
    32   17   18 1
    33   17   40 1
    34   18   19 1
    35   18   20 1
    36   18   21 1
    37   20   41 1
    38   20   42 1
    39   22   23 2
    40   22   24 2
    41   22   25 1
    42   25   26 1
    43   25   27 1
    44   25   43 1
    45   26   44 1
    46   26   45 1
    47   26   46 1
    48   27   47 1
    49   27   48 1
    50   27   49 1
@<TRIPOS>MOLECULE
ZINC38702023
   56    60     0     0     0
SMALL
USER_CHARGES

@<TRIPOS>ATOM
      1 C1         -1.4694    0.0060   -0.3837 C.3       1 <0>         0.0241
      2 O1         -0.8747    0.7081    0.7097 O.3       1 <0>        -0.3036
      3 C2          0.0651    0.0423    1.4329 C.ar      1 <0>         0.1145
      4 C3          0.4111   -1.2559    1.0939 C.ar      1 <0>        -0.1654
      5 C4          1.3670   -1.9310    1.8298 C.ar      1 <0>        -0.0978
      6 C5          1.9792   -1.3140    2.9050 C.ar      1 <0>        -0.1042
      7 C6          1.6382   -0.0192    3.2488 C.ar      1 <0>        -0.1467
      8 C7          0.6854    0.6654    2.5115 C.ar      1 <0>         0.1016
      9 O2          0.3531    1.9413    2.8448 O.3       1 <0>        -0.3021
     10 C8          1.0791    2.5411    3.9196 C.3       1 <0>         0.0252
     11 C9          3.0202   -2.0548    3.7041 C.3       1 <0>         0.2509
     12 H1          3.3041   -2.9730    3.1899 H         1 <0>         0.1173
     13 C10         2.4908   -2.3722    5.0758 C.2       1 <0>        -0.1664
     14 C11         1.5230   -3.0287    5.8437 C.2       1 <0>         0.1144
     15 N1          1.7906   -2.7814    7.1109 N.2       1 <0>        -0.2164
     16 N2          2.8310   -2.0342    7.2191 N.pl3     1 <0>        -0.3302
     17 H2          3.2108   -1.7259    8.0568 H         1 <0>         0.4551
     18 C12         3.3223   -1.7386    5.9793 C.2       1 <0>        -0.0642
     19 C13         4.3658   -1.0266    5.2331 C.2       1 <0>         0.6009
     20 O3          5.2553   -0.3694    5.7391 O.2       1 <0>        -0.5083
     21 N3          4.2000   -1.2044    3.9087 N.am      1 <0>        -0.5855
     22 C14         5.0493   -0.6466    2.8533 C.3       1 <0>         0.1725
     23 H3          4.6829   -0.9672    1.8781 H         1 <0>         0.1263
     24 C15         6.4983   -1.1237    3.0462 C.3       1 <0>        -0.1455
     25 C16         7.4497   -0.2987    2.1463 C.3       1 <0>        -0.5722
     26 S1          6.5663    1.3067    1.9895 S.o2      1 <0>         2.3745
     27 O4          7.2946    2.3055    2.6903 O.2       1 <0>        -0.9265
     28 O5          6.2270    1.5164    0.6256 O.2       1 <0>        -0.9270
     29 C17         5.0364    0.9067    2.9347 C.3       1 <0>        -0.6048
     30 C18         0.4011   -3.8514    5.3271 C.ar      1 <0>        -0.0290
     31 C19         0.3147   -4.1412    3.9677 C.ar      1 <0>        -0.0752
     32 C20        -0.7314   -4.9073    3.4916 C.ar      1 <0>        -0.0429
     33 C21        -1.6950   -5.3883    4.3620 C.ar      1 <0>        -0.0843
     34 C22        -1.6178   -5.1055    5.7125 C.ar      1 <0>        -0.1327
     35 C23        -0.5700   -4.3433    6.2034 C.ar      1 <0>         0.1397
     36 O6         -0.4901   -4.0699    7.5321 O.3       1 <0>        -0.4775
     37 Cl1        -0.8388   -5.2677    1.7969 Cl        1 <0>        -0.0606
     38 H4         -1.9662   -0.8905   -0.0127 H         1 <0>         0.0573
     39 H5         -2.1998    0.6493   -0.8744 H         1 <0>         0.1026
     40 H6         -0.6960   -0.2764   -1.0979 H         1 <0>         0.0574
     41 H7         -0.0661   -1.7404    0.2549 H         1 <0>         0.1412
     42 H8          1.6358   -2.9428    1.5645 H         1 <0>         0.1324
     43 H9          2.1177    0.4604    4.0894 H         1 <0>         0.1309
     44 H10         0.8734    2.0003    4.8434 H         1 <0>         0.0529
     45 H11         2.1469    2.4998    3.7045 H         1 <0>         0.0538
     46 H12         0.7708    3.5807    4.0308 H         1 <0>         0.1045
     47 H13         6.7856   -0.9956    4.0898 H         1 <0>         0.1041
     48 H14         6.5708   -2.1779    2.7788 H         1 <0>         0.1044
     49 H15         8.4170   -0.1620    2.6297 H         1 <0>         0.1477
     50 H16         7.5670   -0.7722    1.1716 H         1 <0>         0.1445
     51 H17         4.1530    1.3196    2.4475 H         1 <0>         0.1461
     52 H18         5.1103    1.2479    3.9673 H         1 <0>         0.1530
     53 H19         1.0646   -3.7671    3.2864 H         1 <0>         0.1406
     54 H20        -2.5106   -5.9868    3.9838 H         1 <0>         0.1415
     55 H21        -2.3724   -5.4830    6.3866 H         1 <0>         0.1441
     56 H22        -0.9473   -3.2594    7.7950 H         1 <0>         0.3930
@<TRIPOS>BOND
     1    1    2 1
     2    1   38 1
     3    1   39 1
     4    1   40 1
     5    2    3 1
     6    3    8 ar
     7    3    4 ar
     8    4    5 ar
     9    4   41 1
    10    5    6 ar
    11    5   42 1
    12    6    7 ar
    13    6   11 1
    14    7    8 ar
    15    7   43 1
    16    8    9 1
    17    9   10 1
    18   10   44 1
    19   10   45 1
    20   10   46 1
    21   11   12 1
    22   11   21 1
    23   11   13 1
    24   13   18 2
    25   13   14 1
    26   14   15 2
    27   14   30 1
    28   15   16 1
    29   16   17 1
    30   16   18 1
    31   18   19 1
    32   19   20 2
    33   19   21 am
    34   21   22 1
    35   22   23 1
    36   22   29 1
    37   22   24 1
    38   24   25 1
    39   24   47 1
    40   24   48 1
    41   25   26 1
    42   25   49 1
    43   25   50 1
    44   26   27 2
    45   26   28 2
    46   26   29 1
    47   29   51 1
    48   29   52 1
    49   30   35 ar
    50   30   31 ar
    51   31   32 ar
    52   31   53 1
    53   32   33 ar
    54   32   37 1
    55   33   34 ar
    56   33   54 1
    57   34   35 ar
    58   34   55 1
    59   35   36 1
    60   36   56 1
@<TRIPOS>MOLECULE
ZINC20153131
   47    49     0     0     0
SMALL
USER_CHARGES

@<TRIPOS>ATOM
      1 C1         -0.0528    1.4863   -0.1772 C.ar      1 <0>        -0.0353
      2 C2          1.1224    2.2029   -0.1689 C.ar      1 <0>        -0.1309
      3 C3          2.3285    1.5632   -0.4423 C.ar      1 <0>         0.2683
      4 C4          2.3487    0.1999   -0.7241 C.ar      1 <0>        -0.0648
      5 C5          1.1861   -0.5169   -0.7343 C.ar      1 <0>         0.0104
      6 C6         -0.0299    0.1171   -0.4605 C.ar      1 <0>        -0.1309
      7 C7         -1.2851   -0.6564   -0.4705 C.2       1 <0>         0.5341
      8 O1         -1.2636   -1.8466   -0.7169 O.2       1 <0>        -0.3869
      9 N1         -2.4562   -0.0439   -0.2063 N.am      1 <0>        -0.6392
     10 C8         -3.6035   -0.7509   -0.2154 C.2       1 <0>         0.4945
     11 S1         -3.5734   -2.4271   -0.5625 S.2       1 <0>        -0.4381
     12 N2         -4.7747   -0.1384    0.0487 N.pl3     1 <0>        -0.6120
     13 C9         -5.9755   -0.8519   -0.0489 C.ar      1 <0>         0.1022
     14 C10        -6.0870   -2.1020    0.5358 C.ar      1 <0>        -0.0095
     15 C11        -7.2872   -2.8105    0.4360 C.ar      1 <0>        -0.1139
     16 C12        -8.3681   -2.2513   -0.2544 C.ar      1 <0>         0.0150
     17 C13        -8.2453   -1.0040   -0.8334 C.ar      1 <0>        -0.1213
     18 C14        -7.0580   -0.3016   -0.7286 C.ar      1 <0>        -0.0297
     19 Cl1        -6.9156    1.2691   -1.4540 Cl        1 <0>        -0.0765
     20 Cl2        -9.8623   -3.1256   -0.3833 Cl        1 <0>        -0.0260
     21 C15        -7.4139   -4.1419    1.0552 C.2       1 <0>         0.5192
     22 O2         -6.4673   -4.6287    1.6578 O.co2     1 <0>        -0.6742
     23 O3         -8.4656   -4.7601    0.9664 O.co2     1 <0>        -0.6582
     24 N3          3.6339   -0.4747   -1.0140 N.pl3     1 <0>         0.0353
     25 O4          3.6536   -1.6585   -1.2589 O.2       1 <0>        -0.1654
     26 O5          4.6641    0.1580   -1.0058 O.3       1 <0>        -0.1283
     27 N4          3.5152    2.2875   -0.4344 N.pl3     1 <0>        -0.6790
     28 C16         4.0135    2.9385   -1.6563 C.3       1 <0>         0.1103
     29 C17         4.3393    4.3998   -1.3272 C.3       1 <0>         0.0495
     30 O6          5.2009    4.4448   -0.1874 O.3       1 <0>        -0.3767
     31 C18         4.6210    3.9125    1.0060 C.3       1 <0>         0.0495
     32 C19         4.3068    2.4309    0.7978 C.3       1 <0>         0.1100
     33 H1         -0.9892    1.9791    0.0389 H         1 <0>         0.1441
     34 H2          1.1089    3.2606    0.0490 H         1 <0>         0.1534
     35 H3          1.2059   -1.5741   -0.9541 H         1 <0>         0.1717
     36 H4         -2.4733    0.9058   -0.0097 H         1 <0>         0.4045
     37 H5         -4.7856    0.7966    0.3065 H         1 <0>         0.4038
     38 H6         -5.2489   -2.5282    1.0671 H         1 <0>         0.1648
     39 H7         -9.0802   -0.5735   -1.3664 H         1 <0>         0.1421
     40 H8          4.9139    2.4305   -2.0018 H         1 <0>         0.0768
     41 H9          3.2485    2.8985   -2.4317 H         1 <0>         0.0752
     42 H10         4.8379    4.8624   -2.1790 H         1 <0>         0.1030
     43 H11         3.4170    4.9379   -1.1080 H         1 <0>         0.0517
     44 H12         5.3223    4.0245    1.8329 H         1 <0>         0.1035
     45 H13         3.6998    4.4488    1.2338 H         1 <0>         0.0514
     46 H14         3.7359    2.0550    1.6468 H         1 <0>         0.0756
     47 H15         5.2373    1.8710    0.7036 H         1 <0>         0.0767
@<TRIPOS>BOND
     1    1    6 ar
     2    1    2 ar
     3    1   33 1
     4    2    3 ar
     5    2   34 1
     6    3    4 ar
     7    3   27 1
     8    4    5 ar
     9    4   24 1
    10    5    6 ar
    11    5   35 1
    12    6    7 1
    13    7    8 2
    14    7    9 am
    15    9   10 1
    16    9   36 1
    17   10   11 2
    18   10   12 1
    19   12   13 1
    20   12   37 1
    21   13   18 ar
    22   13   14 ar
    23   14   15 ar
    24   14   38 1
    25   15   16 ar
    26   15   21 1
    27   16   17 ar
    28   16   20 1
    29   17   18 ar
    30   17   39 1
    31   18   19 1
    32   21   22 2
    33   21   23 1
    34   24   25 2
    35   24   26 1
    36   27   32 1
    37   27   28 1
    38   28   29 1
    39   28   40 1
    40   28   41 1
    41   29   30 1
    42   29   42 1
    43   29   43 1
    44   30   31 1
    45   31   32 1
    46   31   44 1
    47   31   45 1
    48   32   46 1
    49   32   47 1
@<TRIPOS>MOLECULE
ZINC13341003
   37    38     0     0     0
SMALL
USER_CHARGES
5-[(2,4-dimethylphenyl)sulfonylamino]benzene-1,3-dicarboxylic acid
@<TRIPOS>ATOM
      1 C1          6.3333   -0.3420   -1.1880 C.3       1 <0>        -0.1189
      2 C2          5.9836    1.0247   -0.6580 C.ar      1 <0>        -0.0319
      3 C3          6.9532    2.0078   -0.5875 C.ar      1 <0>        -0.1486
      4 C4          6.6325    3.2611   -0.1011 C.ar      1 <0>        -0.0037
      5 C5          5.3421    3.5317    0.3151 C.ar      1 <0>        -0.6764
      6 C6          4.3741    2.5474    0.2495 C.ar      1 <0>         0.0280
      7 C7          4.6936    1.2952   -0.2421 C.ar      1 <0>        -0.1477
      8 C8          2.9690    2.8405    0.7088 C.3       1 <0>        -0.1712
      9 S1          4.9334    5.1293    0.9357 S.o2      1 <0>         2.6898
     10 O1          6.1065    5.9226    0.8192 O.2       1 <0>        -0.9424
     11 O2          4.2715    4.9258    2.1766 O.2       1 <0>        -0.9713
     12 N1          3.8151    5.7838   -0.0954 N.pl3     1 <0>        -1.0446
     13 C9          4.1458    6.0067   -1.4348 C.ar      1 <0>         0.0841
     14 C10         3.2673    5.6229   -2.4378 C.ar      1 <0>        -0.0878
     15 C11         3.5946    5.8441   -3.7771 C.ar      1 <0>        -0.1271
     16 C12         4.8055    6.4507   -4.1059 C.ar      1 <0>        -0.0295
     17 C13         5.6859    6.8345   -3.0959 C.ar      1 <0>        -0.1209
     18 C14         5.3548    6.6052   -1.7589 C.ar      1 <0>        -0.1103
     19 C15         6.9708    7.4780   -3.4398 C.2       1 <0>         0.4960
     20 O3          7.7375    7.8123   -2.5591 O.co2     1 <0>        -0.6367
     21 C16         2.6584    5.4350   -4.8446 C.2       1 <0>         0.4979
     22 O4          1.6032    4.9064   -4.5572 O.co2     1 <0>        -0.6462
     23 H1          6.6595   -0.9782   -0.3652 H         1 <0>         0.0725
     24 H2          5.4568   -0.7829   -1.6628 H         1 <0>         0.0700
     25 H3          7.1367   -0.2534   -1.9193 H         1 <0>         0.0716
     26 H4          7.9612    1.7963   -0.9123 H         1 <0>         0.1305
     27 H5          7.3899    4.0289   -0.0456 H         1 <0>         0.1466
     28 H6          3.9363    0.5272   -0.2968 H         1 <0>         0.1276
     29 H7          2.4131    3.3129   -0.1010 H         1 <0>         0.0916
     30 H8          2.4777    1.9096    0.9922 H         1 <0>         0.0796
     31 H9          3.0000    3.5110    1.5676 H         1 <0>         0.0996
     32 H10         2.9304    6.0125    0.2302 H         1 <0>         0.4182
     33 H11         2.3291    5.1529   -2.1823 H         1 <0>         0.1236
     34 H12         5.0613    6.6226   -5.1410 H         1 <0>         0.1421
     35 H13         6.0387    6.8980   -0.9760 H         1 <0>         0.1533
     36 O5          7.2918    7.6939   -4.7302 O.co2     1 <0>        -0.7553
     37 O6          2.9751    5.6483   -6.1364 O.co2     1 <0>        -0.7523
@<TRIPOS>BOND
     1    1    2 1
     2    1   23 1
     3    1   24 1
     4    1   25 1
     5    2    7 ar
     6    2    3 ar
     7    3    4 ar
     8    3   26 1
     9    4    5 ar
    10    4   27 1
    11    5    6 ar
    12    5    9 1
    13    6    7 ar
    14    6    8 1
    15    7   28 1
    16    8   29 1
    17    8   30 1
    18    8   31 1
    19    9   10 2
    20    9   11 2
    21    9   12 1
    22   12   13 1
    23   12   32 1
    24   13   18 ar
    25   13   14 ar
    26   14   15 ar
    27   14   33 1
    28   15   16 ar
    29   15   21 1
    30   16   17 ar
    31   16   34 1
    32   17   18 ar
    33   17   19 1
    34   18   35 1
    35   19   20 2
    36   19   36 1
    37   21   22 2
    38   21   37 1
@<TRIPOS>MOLECULE
ZINC35288254
   42    44     0     0     0
SMALL
USER_CHARGES

@<TRIPOS>ATOM
      1 C1         -0.0184    1.5028    0.0103 C.3       1 <0>        -0.1101
      2 C2          0.0021   -0.0041    0.0020 C.ar      1 <0>        -0.0946
      3 C3          0.0057   -0.6888   -1.1991 C.ar      1 <0>        -0.1215
      4 C4          0.0245   -2.0707   -1.2067 C.ar      1 <0>        -0.1187
      5 C5          0.0400   -2.7685   -0.0132 C.ar      1 <0>        -0.0657
      6 C6          0.0373   -2.0840    1.1875 C.ar      1 <0>        -0.0422
      7 C7          0.0229   -0.7015    1.1951 C.ar      1 <0>        -0.0973
      8 C8          0.0538   -2.8445    2.4885 C.3       1 <0>        -0.0337
      9 C9          1.4756   -3.1866    2.8524 C.2       1 <0>         0.3719
     10 N1          1.7157   -3.8759    3.9852 N.am      1 <0>        -0.6539
     11 C10         2.9806   -4.1942    4.3318 C.2       1 <0>         0.5282
     12 C11         4.0310   -3.7936    3.4914 C.2       1 <0>        -0.4524
     13 C12         3.7231   -3.0891    2.3433 C.2       1 <0>         0.4520
     14 N2          2.4425   -2.8123    2.0597 N.2       1 <0>        -0.5397
     15 O1          4.7080   -2.6854    1.5077 O.3       1 <0>        -0.6576
     16 C13         5.4610   -4.1236    3.8335 C.3       1 <0>         0.0752
     17 C14         6.0091   -3.0749    4.7668 C.2       1 <0>         0.0105
     18 C15         5.9565   -3.1212    6.1173 C.2       1 <0>        -0.2373
     19 C16         6.5756   -1.9583    6.5965 C.2       1 <0>        -0.1982
     20 C17         6.9834   -1.2462    5.4891 C.2       1 <0>        -0.0784
     21 O2          6.6313   -1.9508    4.3927 O.3       1 <0>        -0.1414
     22 C18         7.6784    0.0392    5.5000 C.2       1 <0>         0.5642
     23 O3          7.9491    0.5801    6.5652 O.co2     1 <0>        -0.6807
     24 O4          7.9902    0.5758    4.4439 O.co2     1 <0>        -0.6773
     25 O5          3.2067   -4.8180    5.3563 O.2       1 <0>        -0.6035
     26 C19         0.0595   -4.2753   -0.0215 C.3       1 <0>        -0.1137
     27 H1          1.0042    1.8801    0.0026 H         1 <0>         0.0700
     28 H2         -0.5455    1.8639   -0.8728 H         1 <0>         0.0587
     29 H3         -0.5286    1.8543    0.9071 H         1 <0>         0.0613
     30 H4         -0.0064   -0.1437   -2.1314 H         1 <0>         0.1131
     31 H5          0.0266   -2.6056   -2.1449 H         1 <0>         0.1144
     32 H6          0.0246   -0.1666    2.1333 H         1 <0>         0.1166
     33 H7         -0.3845   -2.2295    3.2744 H         1 <0>         0.0936
     34 H8         -0.5244   -3.7622    2.3802 H         1 <0>         0.0966
     35 H9          5.5029   -5.0990    4.3182 H         1 <0>         0.0688
     36 H10         6.0571   -4.1453    2.9212 H         1 <0>         0.0709
     37 H11         5.5189   -3.9071    6.7150 H         1 <0>         0.1336
     38 H12         6.7068   -1.6755    7.6305 H         1 <0>         0.1340
     39 H13         0.9769   -4.1439    4.5536 H         1 <0>         0.3897
     40 H14         1.0917   -4.6253   -0.0291 H         1 <0>         0.0752
     41 H15        -0.4447   -4.6501    0.8693 H         1 <0>         0.0620
     42 H16        -0.4546   -4.6404   -0.9106 H         1 <0>         0.0574
@<TRIPOS>BOND
     1    1    2 1
     2    1   27 1
     3    1   28 1
     4    1   29 1
     5    2    7 ar
     6    2    3 ar
     7    3    4 ar
     8    3   30 1
     9    4    5 ar
    10    4   31 1
    11    5    6 ar
    12    5   26 1
    13    6    7 ar
    14    6    8 1
    15    7   32 1
    16    8   33 1
    17    8   34 1
    18    8    9 1
    19    9   14 2
    20    9   10 1
    21   10   39 1
    22   10   11 am
    23   11   25 2
    24   11   12 1
    25   12   16 1
    26   12   13 2
    27   13   15 1
    28   13   14 1
    29   16   17 1
    30   16   35 1
    31   16   36 1
    32   17   21 1
    33   17   18 2
    34   18   19 1
    35   18   37 1
    36   19   20 2
    37   19   38 1
    38   20   21 1
    39   20   22 1
    40   22   23 2
    41   22   24 1
    42   26   40 1
    43   26   41 1
    44   26   42 1
@<TRIPOS>MOLECULE
ZINC13448854
   48    49     0     0     0
SMALL
USER_CHARGES

@<TRIPOS>ATOM
      1 C1         -0.0127    1.0858    0.0080 C.3       1 <0>        -0.0910
      2 C2         -0.7416    1.5850   -1.2129 C.ar      1 <0>         0.1572
      3 C3         -2.1064    1.7992   -1.1728 C.ar      1 <0>        -0.2705
      4 C4         -2.7418    2.2620   -2.3247 C.ar      1 <0>         0.4445
      5 O1         -4.0784    2.4858   -2.3293 O.3       1 <0>        -0.6928
      6 N1         -2.0193    2.4807   -3.4162 N.ar      1 <0>        -0.6199
      7 C5         -0.7117    2.2634   -3.4154 C.ar      1 <0>         0.3065
      8 N2         -0.0804    1.8286   -2.3343 N.ar      1 <0>        -0.5845
      9 S1          0.2107    2.5664   -4.8858 S.3       1 <0>        -0.0012
     10 C6         -1.0336    3.1415   -6.0738 C.3       1 <0>        -0.0985
     11 H1         -1.8335    2.4048   -6.1474 H         1 <0>         0.1142
     12 C7         -1.6119    4.4766   -5.6005 C.3       1 <0>        -0.1384
     13 C8         -0.3918    3.3230   -7.4252 C.2       1 <0>         0.5429
     14 O2          0.8114    3.4467   -7.5134 O.2       1 <0>        -0.5261
     15 N3         -1.1550    3.3477   -8.5358 N.am      1 <0>        -0.7272
     16 C9         -0.5311    3.5241   -9.8495 C.3       1 <0>         0.1474
     17 C10        -0.3381    5.0164  -10.1262 C.3       1 <0>        -0.1313
     18 C11         0.3134    5.2006  -11.4983 C.3       1 <0>        -0.1161
     19 C12        -0.5874    4.5944  -12.5762 C.3       1 <0>        -0.1209
     20 C13        -0.7804    3.1020  -12.2994 C.3       1 <0>        -0.1145
     21 C14        -1.4320    2.9178  -10.9274 C.3       1 <0>        -0.1277
     22 C15        -2.8905    1.5379    0.0873 C.3       1 <0>        -0.0159
     23 C16        -2.9300    2.8100    0.9364 C.3       1 <0>        -0.1651
     24 C17        -3.7141    2.5488    2.1966 C.2       1 <0>         0.4943
     25 O3         -4.1966    1.4472    2.3970 O.co2     1 <0>        -0.7032
     26 O4         -3.8659    3.4390    3.0157 O.co2     1 <0>        -0.7220
     27 H2          0.0021   -0.0041    0.0020 H         1 <0>         0.0631
     28 H3          1.0099    1.4631    0.0003 H         1 <0>         0.0609
     29 H4         -0.5229    1.4373    0.9048 H         1 <0>         0.0746
     30 H5         -0.8120    5.2134   -5.5269 H         1 <0>         0.0581
     31 H6         -2.3596    4.8222   -6.3143 H         1 <0>         0.0538
     32 H7         -2.0761    4.3454   -4.6230 H         1 <0>         0.1027
     33 H8         -2.1174    3.2487   -8.4653 H         1 <0>         0.4021
     34 H9          0.4373    3.0240   -9.8619 H         1 <0>         0.0874
     35 H10        -1.3066    5.5165  -10.1139 H         1 <0>         0.0633
     36 H11         0.3036    5.4483   -9.3583 H         1 <0>         0.0697
     37 H12         0.4509    6.2638  -11.6954 H         1 <0>         0.0622
     38 H13         1.2819    4.7006  -11.5106 H         1 <0>         0.0636
     39 H14        -1.5558    5.0944  -12.5638 H         1 <0>         0.0617
     40 H15        -0.1232    4.7256  -13.5536 H         1 <0>         0.0601
     41 H16        -1.4222    2.6701  -13.0674 H         1 <0>         0.0643
     42 H17         0.1881    2.6020  -12.3118 H         1 <0>         0.0643
     43 H18        -1.5695    1.8547  -10.7303 H         1 <0>         0.0699
     44 H19        -2.4004    3.4179  -10.9150 H         1 <0>         0.0681
     45 H20        -3.9072    1.2425   -0.1720 H         1 <0>         0.0637
     46 H21        -2.4129    0.7380    0.6532 H         1 <0>         0.0476
     47 H22        -1.9133    3.1055    1.1958 H         1 <0>         0.0444
     48 H23        -3.4076    3.6099    0.3706 H         1 <0>         0.0544
@<TRIPOS>BOND
     1    1   27 1
     2    1   28 1
     3    1   29 1
     4    1    2 1
     5    2    3 ar
     6    2    8 ar
     7    3    4 ar
     8    3   22 1
     9    4    6 ar
    10    4    5 1
    11    6    7 ar
    12    7    8 ar
    13    7    9 1
    14    9   10 1
    15   10   11 1
    16   10   12 1
    17   10   13 1
    18   12   30 1
    19   12   31 1
    20   12   32 1
    21   13   14 2
    22   13   15 am
    23   15   16 1
    24   15   33 1
    25   16   21 1
    26   16   17 1
    27   16   34 1
    28   17   18 1
    29   17   35 1
    30   17   36 1
    31   18   19 1
    32   18   37 1
    33   18   38 1
    34   19   20 1
    35   19   39 1
    36   19   40 1
    37   20   21 1
    38   20   41 1
    39   20   42 1
    40   21   43 1
    41   21   44 1
    42   22   23 1
    43   22   45 1
    44   22   46 1
    45   23   24 1
    46   23   47 1
    47   23   48 1
    48   24   25 2
    49   24   26 1
@<TRIPOS>MOLECULE
ZINC55313113
   28    29     0     0     0
SMALL
USER_CHARGES

@<TRIPOS>ATOM
      1 C1         -0.0184    1.5028    0.0103 C.3       1 <0>        -0.0778
      2 C2          0.0021   -0.0041    0.0020 C.ar      1 <0>        -0.1573
      3 C3          0.0057   -0.6889   -1.1975 C.ar      1 <0>        -0.0827
      4 C4          0.0240   -2.0714   -1.2060 C.ar      1 <0>        -0.2364
      5 C5          0.0391   -2.7733   -0.0143 C.ar      1 <0>        -0.0719
      6 C6          0.0360   -2.0949    1.1884 C.ar      1 <0>        -0.2667
      7 C7          0.0230   -0.7057    1.2005 C.ar      1 <0>         0.2883
      8 N1          0.0251   -0.0163    2.4152 N.2       1 <0>        -1.0766
      9 S1          0.0500   -0.8547    3.8431 S.o2      1 <0>         2.6297
     10 O1         -1.1852   -1.5522    3.9261 O.2       1 <0>        -1.0302
     11 O2          1.3052   -1.5183    3.9025 O.2       1 <0>        -1.0228
     12 C8          0.0462    0.3329    5.1447 C.2       1 <0>        -0.6593
     13 C9         -0.9671    0.5235    6.0930 C.2       1 <0>        -0.1092
     14 C10        -0.5498    1.5507    6.9131 C.2       1 <0>        -0.0385
     15 O3          0.6612    1.9607    6.4781 O.3       1 <0>        -0.1315
     16 C11         1.0250    1.2280    5.4187 C.2       1 <0>         0.0617
     17 Br1         2.6426    1.4149    4.4574 Br        1 <0>         0.0578
     18 C12        -1.2645    2.0814    8.0158 C.2       1 <0>         0.5591
     19 O4         -2.3607    1.6225    8.3135 O.co2     1 <0>        -0.6604
     20 O5         -0.7861    2.9992    8.6714 O.co2     1 <0>        -0.6761
     21 H1          1.0042    1.8801    0.0026 H         1 <0>         0.0445
     22 H2         -0.5455    1.8639   -0.8728 H         1 <0>         0.0327
     23 H3         -0.5286    1.8543    0.9071 H         1 <0>         0.0738
     24 H4         -0.0060   -0.1439   -2.1298 H         1 <0>         0.0984
     25 H5          0.0261   -2.6044   -2.1453 H         1 <0>         0.0945
     26 H6          0.0529   -3.8531   -0.0245 H         1 <0>         0.0958
     27 H7          0.0474   -2.6436    2.1185 H         1 <0>         0.0954
     28 H8         -1.8937   -0.0263    6.1673 H         1 <0>         0.1657
@<TRIPOS>BOND
     1    1    2 1
     2    1   21 1
     3    1   22 1
     4    1   23 1
     5    2    7 ar
     6    2    3 ar
     7    3    4 ar
     8    3   24 1
     9    4    5 ar
    10    4   25 1
    11    5    6 ar
    12    5   26 1
    13    6    7 ar
    14    6   27 1
    15    7    8 1
    16    8    9 1
    17    9   10 2
    18    9   11 2
    19    9   12 1
    20   12   16 2
    21   12   13 1
    22   13   14 2
    23   13   28 1
    24   14   15 1
    25   14   18 1
    26   15   16 1
    27   16   17 1
    28   18   19 2
    29   18   20 1
@<TRIPOS>MOLECULE
ZINC47202347
   33    34     0     0     0
SMALL
USER_CHARGES

@<TRIPOS>ATOM
      1 C1         -0.1302    1.4990    0.0194 C.3       1 <0>        -0.1780
      2 C2         -0.0514   -0.0059    0.0064 C.ar      1 <0>         0.1029
      3 C3         -0.0986   -0.6902   -1.1940 C.ar      1 <0>        -0.0790
      4 C4         -0.0264   -2.0704   -1.2060 C.ar      1 <0>        -0.0276
      5 C5          0.0935   -2.7667   -0.0176 C.ar      1 <0>        -0.1544
      6 C6          0.1416   -2.0825    1.1824 C.ar      1 <0>         0.0151
      7 C7          0.0736   -0.7016    1.1940 C.ar      1 <0>        -0.6078
      8 S1          0.1411    0.1709    2.7233 S.o2      1 <0>         2.5631
      9 O1         -0.9385    1.0948    2.7117 O.2       1 <0>        -1.0307
     10 O2          0.2957   -0.8072    3.7425 O.2       1 <0>        -1.0346
     11 N1          1.5325    1.0687    2.7139 N.2       1 <0>        -0.9818
     12 C8          1.8510    1.8659    3.8036 C.ar      1 <0>         0.3204
     13 C9          1.0083    1.9095    4.9068 C.ar      1 <0>        -0.2979
     14 C10         1.3254    2.7032    5.9905 C.ar      1 <0>        -0.0472
     15 C11         2.4836    3.4630    5.9908 C.ar      1 <0>        -0.2830
     16 C12         3.3360    3.4356    4.9054 C.ar      1 <0>         0.1578
     17 C13         3.0313    2.6297    3.7995 C.ar      1 <0>        -0.2321
     18 C14         3.9349    2.5889    2.6424 C.2       1 <0>         0.5298
     19 O3          3.6615    1.8883    1.6770 O.co2     1 <0>        -0.6530
     20 O4          4.9612    3.2556    2.6437 O.co2     1 <0>        -0.7248
     21 F1          4.4637    4.1795    4.9111 F         1 <0>        -0.1382
     22 N2         -0.2269    0.0552   -2.4664 N.pl3     1 <0>         0.0389
     23 O5         -0.9068   -0.3896   -3.3617 O.2       1 <0>        -0.1835
     24 O6          0.3481    1.1089   -2.6103 O.3       1 <0>        -0.1357
     25 H1          0.8769    1.9153    0.0449 H         1 <0>         0.1310
     26 H2         -0.6432    1.8438   -0.8784 H         1 <0>         0.0704
     27 H3         -0.6811    1.8264    0.9011 H         1 <0>         0.1193
     28 H4         -0.0639   -2.6050   -2.1436 H         1 <0>         0.1435
     29 H5          0.1492   -3.8452   -0.0269 H         1 <0>         0.1458
     30 H6          0.2348   -2.6264    2.1107 H         1 <0>         0.1544
     31 H7          0.1027    1.3211    4.9165 H         1 <0>         0.0934
     32 H8          0.6652    2.7323    6.8447 H         1 <0>         0.1003
     33 H9          2.7207    4.0805    6.8445 H         1 <0>         0.1030
@<TRIPOS>BOND
     1    1    2 1
     2    1   25 1
     3    1   26 1
     4    1   27 1
     5    2    7 ar
     6    2    3 ar
     7    3    4 ar
     8    3   22 1
     9    4    5 ar
    10    4   28 1
    11    5    6 ar
    12    5   29 1
    13    6    7 ar
    14    6   30 1
    15    7    8 1
    16    8    9 2
    17    8   10 2
    18    8   11 1
    19   11   12 1
    20   12   17 ar
    21   12   13 ar
    22   13   14 ar
    23   13   31 1
    24   14   15 ar
    25   14   32 1
    26   15   16 ar
    27   15   33 1
    28   16   17 ar
    29   16   21 1
    30   17   18 1
    31   18   19 2
    32   18   20 1
    33   22   23 2
    34   22   24 1
@<TRIPOS>MOLECULE
ZINC65549203
   39    40     0     0     0
SMALL
USER_CHARGES

@<TRIPOS>ATOM
      1 C1         -2.7162    0.2353   -4.7799 C.3       1 <0>        -0.0772
      2 C2         -2.2162   -0.9976   -4.0719 C.ar      1 <0>        -0.2302
      3 C3         -2.5036   -2.2526   -4.5871 C.ar      1 <0>        -0.0686
      4 C4         -2.0528   -3.3899   -3.9502 C.ar      1 <0>        -0.2883
      5 C5         -1.3048   -3.2848   -2.7835 C.ar      1 <0>         0.3017
      6 C6         -1.0116   -2.0147   -2.2585 C.ar      1 <0>        -0.1914
      7 C7         -1.4721   -0.8712   -2.9207 C.ar      1 <0>        -0.0455
      8 C8         -0.2213   -1.8880   -1.0251 C.2       1 <0>         0.5303
      9 O1          0.0316   -0.7800   -0.5716 O.co2     1 <0>        -0.7432
     10 O2          0.1834   -2.8905   -0.4521 O.co2     1 <0>        -0.6510
     11 N1         -0.8507   -4.4270   -2.1408 N.2       1 <0>        -0.9487
     12 S1         -1.1994   -5.9214   -2.7633 S.o2      1 <0>         2.5352
     13 O3         -2.6065   -6.0878   -2.6560 O.2       1 <0>        -1.0302
     14 O4         -0.5137   -6.0145   -4.0044 O.2       1 <0>        -1.0372
     15 C9         -0.4681   -7.1151   -1.6932 C.ar      1 <0>        -0.5545
     16 C10         0.5780   -7.8987   -2.1439 C.ar      1 <0>        -0.0279
     17 C11         1.1516   -8.8350   -1.3046 C.ar      1 <0>        -0.0807
     18 C12         0.6796   -8.9878   -0.0141 C.ar      1 <0>        -0.0612
     19 C13        -0.3656   -8.2038    0.4368 C.ar      1 <0>        -0.0862
     20 C14        -0.9366   -7.2642   -0.4015 C.ar      1 <0>         0.0618
     21 N2         -2.0525   -6.4211    0.0830 N.pl3     1 <0>         0.0013
     22 O5         -2.8993   -6.8950    0.8042 O.2       1 <0>        -0.2148
     23 O6         -2.1173   -5.2585   -0.2424 O.3       1 <0>        -0.0132
     24 C15         1.3044  -10.0094    0.9008 C.3       1 <0>        -0.1129
     25 C16         2.2912   -9.6898   -1.7962 C.3       1 <0>        -0.1152
     26 H1         -1.9753    0.5603   -5.5104 H         1 <0>         0.0390
     27 H2         -3.6526    0.0073   -5.2890 H         1 <0>         0.0397
     28 H3         -2.8821    1.0299   -4.0524 H         1 <0>         0.0458
     29 H4         -3.0848   -2.3401   -5.4932 H         1 <0>         0.0863
     30 H5         -2.2817   -4.3633   -4.3583 H         1 <0>         0.0847
     31 H6         -1.2478    0.1090   -2.5267 H         1 <0>         0.1060
     32 H7          0.9467   -7.7794   -3.1520 H         1 <0>         0.1553
     33 H8         -0.7345   -8.3234    1.4447 H         1 <0>         0.1445
     34 H9          2.1263   -9.5505    1.4503 H         1 <0>         0.0780
     35 H10         0.5555  -10.3735    1.6041 H         1 <0>         0.0699
     36 H11         1.6833  -10.8431    0.3096 H         1 <0>         0.0752
     37 H12         3.2370   -9.1903   -1.5861 H         1 <0>         0.0787
     38 H13         2.2684  -10.6534   -1.2873 H         1 <0>         0.0725
     39 H14         2.1925   -9.8439   -2.8707 H         1 <0>         0.0719
@<TRIPOS>BOND
     1    1    2 1
     2    1   26 1
     3    1   27 1
     4    1   28 1
     5    2    7 ar
     6    2    3 ar
     7    3    4 ar
     8    3   29 1
     9    4    5 ar
    10    4   30 1
    11    5    6 ar
    12    5   11 1
    13    6    7 ar
    14    6    8 1
    15    7   31 1
    16    8    9 2
    17    8   10 1
    18   11   12 1
    19   12   13 2
    20   12   14 2
    21   12   15 1
    22   15   20 ar
    23   15   16 ar
    24   16   17 ar
    25   16   32 1
    26   17   18 ar
    27   17   25 1
    28   18   19 ar
    29   18   24 1
    30   19   20 ar
    31   19   33 1
    32   20   21 1
    33   21   22 2
    34   21   23 1
    35   24   34 1
    36   24   35 1
    37   24   36 1
    38   25   37 1
    39   25   38 1
    40   25   39 1
@<TRIPOS>MOLECULE
ZINC20572300
   48    51     0     0     0
SMALL
USER_CHARGES
5-chloro-N-[4-[[(2R)-6-fluoro-2-methyl-3,4-dihydro-2H-quinolin-1-yl]sulfonyl]phenyl]thiophene-2-sulfonamide
@<TRIPOS>ATOM
      1 C1         -0.1896    0.6043    2.8007 C.3       1 <0>        -0.1812
      2 C2         -0.7806    1.0520    1.4623 C.3       1 <0>         0.1377
      3 H1         -1.8495    0.7945    1.4299 H         1 <0>         0.0881
      4 C3         -0.0057    0.4019    0.3087 C.3       1 <0>        -0.1254
      5 C4         -0.6531    0.8073   -1.0152 C.3       1 <0>        -0.0772
      6 C5         -0.8167    2.3027   -1.0863 C.ar      1 <0>        -0.0896
      7 C6         -0.9699    2.9014   -2.3260 C.ar      1 <0>        -0.1279
      8 C7         -1.1259    4.2721   -2.4242 C.ar      1 <0>         0.0679
      9 C8         -1.1299    5.0544   -1.2814 C.ar      1 <0>        -0.1177
     10 C9         -0.9763    4.4640   -0.0432 C.ar      1 <0>        -0.1465
     11 C10        -0.8178    3.0862    0.0568 C.ar      1 <0>         0.1780
     12 N1         -0.6553    2.5090    1.3227 N.pl3     1 <0>        -0.9344
     13 S1         -0.3245    3.4535    2.6422 S.o2      1 <0>         2.6809
     14 O1          0.3542    2.6241    3.5753 O.2       1 <0>        -0.9487
     15 O2          0.2373    4.6610    2.1467 O.2       1 <0>        -0.9582
     16 C11        -1.8678    3.8805    3.3773 C.ar      1 <0>        -0.7267
     17 C12        -2.5255    5.0308    2.9817 C.ar      1 <0>        -0.0106
     18 C13        -3.7381    5.3655    3.5517 C.ar      1 <0>        -0.1740
     19 C14        -4.2914    4.5511    4.5317 C.ar      1 <0>         0.2825
     20 C15        -3.6253    3.3993    4.9308 C.ar      1 <0>        -0.1805
     21 C16        -2.4158    3.0676    4.3525 C.ar      1 <0>        -0.0072
     22 N2         -5.5151    4.8894    5.1141 N.2       1 <0>        -1.0854
     23 S2         -5.5601    5.4887    6.6572 S.o2      1 <0>         2.6235
     24 O3         -6.9218    5.7798    6.9402 O.2       1 <0>        -0.9827
     25 O4         -4.7874    4.6055    7.4585 O.2       1 <0>        -1.0212
     26 C17        -4.7080    7.0309    6.6422 C.2       1 <0>        -0.6930
     27 C18        -5.2095    8.2813    6.4965 C.2       1 <0>        -0.0475
     28 C19        -4.3430    9.3586    6.5210 C.2       1 <0>        -0.1602
     29 C20        -3.0151    9.1302    6.6787 C.2       1 <0>        -0.1194
     30 S3         -2.9593    7.3505    6.8071 S.3       1 <0>         0.1866
     31 Cl1        -1.7090   10.2722    6.7393 Cl        1 <0>         0.0103
     32 F1         -1.2741    4.8489   -3.6368 F         1 <0>        -0.1439
     33 H2         -0.2871   -0.4871    2.8978 H         1 <0>         0.0688
     34 H3         -0.7306    1.0954    3.6230 H         1 <0>         0.0860
     35 H4          0.8737    0.8827    2.8434 H         1 <0>         0.0878
     36 H5          1.0397    0.7435    0.3307 H         1 <0>         0.0753
     37 H6         -0.0362   -0.6923    0.4172 H         1 <0>         0.0875
     38 H7         -0.0177    0.4773   -1.8503 H         1 <0>         0.0827
     39 H8         -1.6431    0.3352   -1.0990 H         1 <0>         0.0829
     40 H9         -0.9674    2.2952   -3.2198 H         1 <0>         0.1361
     41 H10        -1.2527    6.1246   -1.3589 H         1 <0>         0.1407
     42 H11        -0.9790    5.0728    0.8488 H         1 <0>         0.1654
     43 H12        -2.0925    5.6660    2.2231 H         1 <0>         0.1223
     44 H13        -4.2534    6.2617    3.2392 H         1 <0>         0.1223
     45 H14        -4.0529    2.7638    5.6921 H         1 <0>         0.1282
     46 H15        -1.8975    2.1720    4.6621 H         1 <0>         0.1255
     47 H16        -6.2706    8.4344    6.3667 H         1 <0>         0.1499
     48 H17        -4.7171   10.3658    6.4118 H         1 <0>         0.1423
@<TRIPOS>BOND
     1    1    2 1
     2    1   33 1
     3    1   34 1
     4    1   35 1
     5    2    3 1
     6    2   12 1
     7    2    4 1
     8    4    5 1
     9    4   36 1
    10    4   37 1
    11    5    6 1
    12    5   38 1
    13    5   39 1
    14    6   11 ar
    15    6    7 ar
    16    7    8 ar
    17    7   40 1
    18    8    9 ar
    19    8   32 1
    20    9   10 ar
    21    9   41 1
    22   10   11 ar
    23   10   42 1
    24   11   12 1
    25   12   13 1
    26   13   14 2
    27   13   15 2
    28   13   16 1
    29   16   21 ar
    30   16   17 ar
    31   17   18 ar
    32   17   43 1
    33   18   19 ar
    34   18   44 1
    35   19   20 ar
    36   19   22 1
    37   20   21 ar
    38   20   45 1
    39   21   46 1
    40   22   23 1
    41   23   24 2
    42   23   25 2
    43   23   26 1
    44   26   30 1
    45   26   27 2
    46   27   28 1
    47   27   47 1
    48   28   29 2
    49   28   48 1
    50   29   30 1
    51   29   31 1
@<TRIPOS>MOLECULE
ZINC35263943
   61    65     0     0     0
SMALL
USER_CHARGES

@<TRIPOS>ATOM
      1 C1         -3.4322    1.7754   -5.2303 C.3       1 <0>        -0.1501
      2 C2         -3.4520    0.2495   -5.3394 C.3       1 <0>        -0.1235
      3 C3         -4.1107   -0.3425   -4.0918 C.3       1 <0>         0.0568
      4 O1         -4.1292   -1.7678   -4.1937 O.3       1 <0>        -0.3156
      5 C4         -4.6837   -2.4521   -3.1614 C.ar      1 <0>         0.1443
      6 C5         -5.2056   -1.7619   -2.0729 C.ar      1 <0>        -0.2235
      7 C6         -5.7690   -2.4523   -1.0236 C.ar      1 <0>        -0.0304
      8 C7         -5.8164   -3.8494   -1.0537 C.ar      1 <0>        -0.1758
      9 C8         -5.2910   -4.5394   -2.1503 C.ar      1 <0>        -0.0284
     10 C9         -4.7337   -3.8412   -3.1977 C.ar      1 <0>        -0.1667
     11 C10        -6.4192   -4.5938    0.0695 C.2       1 <0>         0.5111
     12 C11        -6.5455   -6.0527   -0.0017 C.2       1 <0>        -0.4920
     13 C12        -5.4159   -7.0562   -0.0013 C.3       1 <0>         0.2650
     14 H1         -4.7686   -6.8923   -0.8628 H         1 <0>         0.0893
     15 N1         -6.0448   -8.3795   -0.0868 N.am      1 <0>        -0.5111
     16 C13        -7.3776   -8.2019   -0.1330 C.2       1 <0>         0.5114
     17 O2         -8.1978   -9.0953   -0.2070 O.2       1 <0>        -0.4641
     18 C14        -7.6969   -6.7610   -0.0748 C.2       1 <0>         0.2747
     19 O3         -8.9424   -6.2327   -0.0941 O.3       1 <0>        -0.6338
     20 C15        -5.3838   -9.5947   -0.1154 C.2       1 <0>         0.4188
     21 N2         -5.8877  -10.8045   -0.1962 N.2       1 <0>        -0.5326
     22 C16        -5.1160  -11.9124   -0.2146 C.ar      1 <0>         0.1133
     23 C17        -5.5285  -13.2627   -0.2976 C.ar      1 <0>        -0.0353
     24 C18        -4.6072  -14.2769   -0.3039 C.ar      1 <0>        -0.1107
     25 C19        -3.2455  -14.0203   -0.2302 C.ar      1 <0>        -0.0803
     26 C20        -2.8065  -12.7117   -0.1486 C.ar      1 <0>        -0.0652
     27 C21        -3.7220  -11.6890   -0.1411 C.ar      1 <0>        -0.1535
     28 S1         -3.6267   -9.9167   -0.0597 S.3       1 <0>        -0.0007
     29 C22        -2.2553  -15.1563   -0.2387 C.3       1 <0>        -0.1068
     30 C23        -6.9973  -13.5896   -0.3794 C.3       1 <0>        -0.1115
     31 C24        -4.6214   -6.9415    1.2741 C.ar      1 <0>        -0.0933
     32 C25        -5.0620   -7.5742    2.4216 C.ar      1 <0>        -0.0654
     33 C26        -4.3339   -7.4701    3.5917 C.ar      1 <0>        -0.1476
     34 C27        -3.1629   -6.7318    3.6144 C.ar      1 <0>         0.0929
     35 C28        -2.7226   -6.0985    2.4645 C.ar      1 <0>        -0.1495
     36 C29        -3.4495   -6.2083    1.2943 C.ar      1 <0>        -0.0771
     37 F1         -2.4506   -6.6290    4.7577 F         1 <0>        -0.1446
     38 O4         -6.8113   -3.9964    1.0547 O.2       1 <0>        -0.4681
     39 H2         -2.9630    2.1972   -6.1191 H         1 <0>         0.0632
     40 H3         -4.4535    2.1471   -5.1475 H         1 <0>         0.0577
     41 H4         -2.8659    2.0691   -4.3464 H         1 <0>         0.0575
     42 H5         -4.0183   -0.0442   -6.2233 H         1 <0>         0.0731
     43 H6         -2.4307   -0.1222   -5.4222 H         1 <0>         0.0728
     44 H7         -3.5444   -0.0489   -3.2079 H         1 <0>         0.0624
     45 H8         -5.1320    0.0291   -4.0090 H         1 <0>         0.0627
     46 H9         -5.1685   -0.6828   -2.0505 H         1 <0>         0.1272
     47 H10        -6.1735   -1.9155   -0.1782 H         1 <0>         0.1332
     48 H11        -5.3253   -5.6185   -2.1773 H         1 <0>         0.1386
     49 H12        -4.3309   -4.3733   -4.0469 H         1 <0>         0.1319
     50 H13        -4.9487  -15.2995   -0.3673 H         1 <0>         0.1288
     51 H14        -1.7499  -12.4956   -0.0903 H         1 <0>         0.1285
     52 H15        -1.9702  -15.3821   -1.2662 H         1 <0>         0.0710
     53 H16        -1.3701  -14.8709    0.3297 H         1 <0>         0.0667
     54 H17        -2.7095  -16.0375    0.2144 H         1 <0>         0.0677
     55 H18        -7.3052  -13.6195   -1.4245 H         1 <0>         0.0710
     56 H19        -7.1796  -14.5606    0.0811 H         1 <0>         0.0635
     57 H20        -7.5695  -12.8251    0.1462 H         1 <0>         0.0786
     58 H21        -5.9756   -8.1498    2.4038 H         1 <0>         0.1236
     59 H22        -4.6785   -7.9642    4.4881 H         1 <0>         0.1322
     60 H23        -1.8094   -5.5220    2.4811 H         1 <0>         0.1341
     61 H24        -3.1040   -5.7182    0.3961 H         1 <0>         0.1337
@<TRIPOS>BOND
     1    1    2 1
     2    1   39 1
     3    1   40 1
     4    1   41 1
     5    2    3 1
     6    2   42 1
     7    2   43 1
     8    3    4 1
     9    3   44 1
    10    3   45 1
    11    4    5 1
    12    5   10 ar
    13    5    6 ar
    14    6    7 ar
    15    6   46 1
    16    7    8 ar
    17    7   47 1
    18    8    9 ar
    19    8   11 1
    20    9   10 ar
    21    9   48 1
    22   10   49 1
    23   11   12 1
    24   11   38 2
    25   12   18 2
    26   12   13 1
    27   13   15 1
    28   13   31 1
    29   13   14 1
    30   15   20 1
    31   15   16 am
    32   16   17 2
    33   16   18 1
    34   18   19 1
    35   20   28 1
    36   20   21 2
    37   21   22 1
    38   22   27 ar
    39   22   23 ar
    40   23   24 ar
    41   23   30 1
    42   24   25 ar
    43   24   50 1
    44   25   26 ar
    45   25   29 1
    46   26   27 ar
    47   26   51 1
    48   27   28 1
    49   29   52 1
    50   29   53 1
    51   29   54 1
    52   30   55 1
    53   30   56 1
    54   30   57 1
    55   31   36 ar
    56   31   32 ar
    57   32   33 ar
    58   32   58 1
    59   33   34 ar
    60   33   59 1
    61   34   35 ar
    62   34   37 1
    63   35   36 ar
    64   35   60 1
    65   36   61 1
@<TRIPOS>MOLECULE
ZINC38624751
   61    63     0     0     0
SMALL
USER_CHARGES

@<TRIPOS>ATOM
      1 C1         -1.2647   -2.1907   -9.2941 C.3       1 <0>        -0.1197
      2 C2         -0.7592   -1.6203   -7.9941 C.ar      1 <0>        -0.0302
      3 C3         -0.9885   -2.2931   -6.8095 C.ar      1 <0>        -0.2067
      4 C4         -0.5225   -1.7678   -5.6132 C.ar      1 <0>         0.1594
      5 C5          0.1729   -0.5675   -5.6088 C.ar      1 <0>        -0.1573
      6 C6          0.4002    0.1024   -6.7954 C.ar      1 <0>        -0.0369
      7 C7         -0.0608   -0.4258   -7.9883 C.ar      1 <0>        -0.0866
      8 Cl1         0.2318    0.4145   -9.4790 Cl        1 <0>        -0.0795
      9 C8          1.1556    1.4064   -6.7913 C.3       1 <0>        -0.1164
     10 O1         -0.7475   -2.4281   -4.4466 O.3       1 <0>        -0.2994
     11 C9         -1.5389   -3.6159   -4.5157 C.3       1 <0>         0.0439
     12 H1         -1.3090   -4.1526   -5.4361 H         1 <0>         0.1317
     13 C10        -3.0224   -3.2420   -4.5002 C.3       1 <0>        -0.1473
     14 C11        -1.2300   -4.4949   -3.3312 C.2       1 <0>         0.4363
     15 O2         -0.6202   -4.0441   -2.3836 O.2       1 <0>        -0.4845
     16 C12        -1.6651   -5.8914   -3.3235 C.2       1 <0>        -0.4084
     17 C13        -1.4384   -6.6926   -2.1886 C.2       1 <0>         0.1657
     18 C14        -1.8619   -8.0163   -2.2066 C.2       1 <0>        -0.3006
     19 C15        -2.5283   -8.5283   -3.4054 C.2       1 <0>         0.5727
     20 O3         -2.9088   -9.6848   -3.4449 O.2       1 <0>        -0.5537
     21 N1         -2.7201   -7.7189   -4.4638 N.am      1 <0>        -0.5256
     22 C16        -2.3117   -6.4285   -4.4423 C.2       1 <0>         0.5257
     23 O4         -2.5268   -5.6494   -5.5184 O.3       1 <0>        -0.6355
     24 C17        -3.3881   -8.2422   -5.6580 C.3       1 <0>         0.1127
     25 C18        -4.8974   -8.0232   -5.5354 C.3       1 <0>        -0.0872
     26 C19        -5.5845   -8.5615   -6.7638 C.ar      1 <0>        -0.1069
     27 C20        -5.7822   -7.7414   -7.8593 C.ar      1 <0>        -0.0707
     28 C21        -6.4123   -8.2323   -8.9864 C.ar      1 <0>        -0.1510
     29 C22        -6.8463   -9.5496   -9.0187 C.ar      1 <0>         0.1167
     30 C23        -6.6463  -10.3706   -7.9184 C.ar      1 <0>        -0.2075
     31 C24        -6.0111   -9.8763   -6.7957 C.ar      1 <0>        -0.0735
     32 O5         -7.4668  -10.0348  -10.1262 O.3       1 <0>        -0.3208
     33 C25        -7.8868  -11.4002  -10.0888 C.3       1 <0>         0.0282
     34 C26        -1.6498   -8.8646   -1.0725 C.1       1 <0>         0.3125
     35 N2         -1.4815   -9.5375   -0.1729 N.1       1 <0>        -0.4854
     36 C27        -0.7479   -6.1252   -0.9752 C.3       1 <0>        -0.1391
     37 H2         -0.5050   -2.8432   -9.7244 H         1 <0>         0.0755
     38 H3         -2.1738   -2.7634   -9.1105 H         1 <0>         0.0733
     39 H4         -1.4810   -1.3782   -9.9877 H         1 <0>         0.0717
     40 H5         -1.5304   -3.2272   -6.8149 H         1 <0>         0.1504
     41 H6          0.5361   -0.1568   -4.6783 H         1 <0>         0.1362
     42 H7          2.2211    1.2094   -6.9098 H         1 <0>         0.0749
     43 H8          0.8077    2.0304   -7.6145 H         1 <0>         0.0726
     44 H9          0.9844    1.9225   -5.8466 H         1 <0>         0.0706
     45 H10        -3.2320   -2.6230   -3.6278 H         1 <0>         0.0501
     46 H11        -3.2668   -2.6876   -5.4063 H         1 <0>         0.0577
     47 H12        -3.6253   -4.1490   -4.4555 H         1 <0>         0.0899
     48 H13        -3.0159   -7.7214   -6.5402 H         1 <0>         0.0964
     49 H14        -3.1822   -9.3085   -5.7516 H         1 <0>         0.0860
     50 H15        -5.2697   -8.5440   -4.6532 H         1 <0>         0.0736
     51 H16        -5.1034   -6.9569   -5.4417 H         1 <0>         0.0803
     52 H17        -5.4441   -6.7160   -7.8336 H         1 <0>         0.1336
     53 H18        -6.5671   -7.5911   -9.8416 H         1 <0>         0.1285
     54 H19        -6.9834  -11.3964   -7.9412 H         1 <0>         0.1250
     55 H20        -5.8513  -10.5163   -5.9405 H         1 <0>         0.1267
     56 H21        -7.0203  -12.0428   -9.9333 H         1 <0>         0.0546
     57 H22        -8.5944  -11.5403   -9.2716 H         1 <0>         0.0539
     58 H23        -8.3663  -11.6588  -11.0329 H         1 <0>         0.0970
     59 H24        -1.4767   -5.6081   -0.3511 H         1 <0>         0.0814
     60 H25        -0.2908   -6.9344   -0.4057 H         1 <0>         0.0559
     61 H26         0.0233   -5.4227   -1.2913 H         1 <0>         0.1092
@<TRIPOS>BOND
     1    1    2 1
     2    1   37 1
     3    1   38 1
     4    1   39 1
     5    2    7 ar
     6    2    3 ar
     7    3    4 ar
     8    3   40 1
     9    4    5 ar
    10    4   10 1
    11    5    6 ar
    12    5   41 1
    13    6    7 ar
    14    6    9 1
    15    7    8 1
    16    9   42 1
    17    9   43 1
    18    9   44 1
    19   10   11 1
    20   11   12 1
    21   11   13 1
    22   11   14 1
    23   13   45 1
    24   13   46 1
    25   13   47 1
    26   14   15 2
    27   14   16 1
    28   16   22 2
    29   16   17 1
    30   17   18 2
    31   17   36 1
    32   18   19 1
    33   18   34 1
    34   19   20 2
    35   19   21 am
    36   21   22 1
    37   21   24 1
    38   22   23 1
    39   24   25 1
    40   24   48 1
    41   24   49 1
    42   25   26 1
    43   25   50 1
    44   25   51 1
    45   26   31 ar
    46   26   27 ar
    47   27   28 ar
    48   27   52 1
    49   28   29 ar
    50   28   53 1
    51   29   30 ar
    52   29   32 1
    53   30   31 ar
    54   30   54 1
    55   31   55 1
    56   32   33 1
    57   33   56 1
    58   33   57 1
    59   33   58 1
    60   34   35 3
    61   36   59 1
    62   36   60 1
    63   36   61 1
@<TRIPOS>MOLECULE
ZINC40085425
   72    74     0     0     0
SMALL
USER_CHARGES

@<TRIPOS>ATOM
      1 C1          0.3616    2.3481   -1.0038 C.3       1 <0>        -0.1501
      2 C2          0.4479    0.8432   -0.7419 C.3       1 <0>        -0.1207
      3 C3          1.1720    0.1636   -1.9058 C.3       1 <0>        -0.1370
      4 C4          1.2583   -1.3413   -1.6439 C.3       1 <0>         0.1365
      5 N1          1.9517   -1.9920   -2.7584 N.am      1 <0>        -0.6113
      6 C5          1.3236   -2.5263   -3.9725 C.3       1 <0>         0.2675
      7 H1          0.8157   -1.7283   -4.5140 H         1 <0>         0.0668
      8 C6          2.4447   -3.0922   -4.8125 C.2       1 <0>        -0.5011
      9 C7          3.5910   -2.8882   -4.1227 C.2       1 <0>         0.2622
     10 C8          3.2775   -2.2003   -2.8527 C.2       1 <0>         0.5109
     11 O1          4.0958   -1.8737   -2.0161 O.2       1 <0>        -0.5364
     12 O2          4.8280   -3.2522   -4.5326 O.3       1 <0>        -0.6550
     13 C9          2.3157   -3.7381   -6.1227 C.2       1 <0>         0.5068
     14 O3          2.5808   -4.9193   -6.2476 O.2       1 <0>        -0.4761
     15 C10         1.8642   -2.9555   -7.2900 C.ar      1 <0>        -0.1683
     16 C11         1.6796   -1.5737   -7.1789 C.ar      1 <0>        -0.0294
     17 C12         1.2586   -0.8478   -8.2698 C.ar      1 <0>        -0.2206
     18 C13         1.0163   -1.4865   -9.4812 C.ar      1 <0>         0.1369
     19 C14         1.1985   -2.8600   -9.5959 C.ar      1 <0>        -0.1349
     20 C15         1.6255   -3.5927   -8.5113 C.ar      1 <0>        -0.0375
     21 C16         0.9340   -3.5469  -10.9109 C.3       1 <0>        -0.0999
     22 O4          0.6004   -0.7673  -10.5540 O.3       1 <0>        -0.3155
     23 C17         0.3190    0.6170  -10.3375 C.3       1 <0>         0.0271
     24 C18         0.3437   -3.6135   -3.6135 C.ar      1 <0>        -0.0674
     25 C19         0.6964   -4.5838   -2.6940 C.ar      1 <0>        -0.0826
     26 C20        -0.1989   -5.5832   -2.3613 C.ar      1 <0>        -0.1716
     27 C21        -1.4531   -5.6137   -2.9496 C.ar      1 <0>         0.0929
     28 C22        -1.8083   -4.6368   -3.8748 C.ar      1 <0>         0.0941
     29 C23        -0.9078   -3.6351   -4.2002 C.ar      1 <0>        -0.1641
     30 O5         -3.0380   -4.6625   -4.4548 O.3       1 <0>        -0.3098
     31 C24        -3.2965   -3.6915   -5.4709 C.3       1 <0>         0.0276
     32 O6         -2.3349   -6.5964   -2.6238 O.3       1 <0>        -0.3081
     33 C25        -1.9019   -7.5656   -1.6671 C.3       1 <0>         0.0568
     34 C26        -3.0198   -8.5829   -1.4298 C.3       1 <0>        -0.1120
     35 C27        -2.5561   -9.6206   -0.4056 C.3       1 <0>        -0.0947
     36 C28        -2.3352   -8.9393    0.9464 C.3       1 <0>        -0.1530
     37 C29        -3.6239  -10.7068   -0.2609 C.3       1 <0>        -0.1457
     38 H2          1.3670    2.7591   -1.0959 H         1 <0>         0.0535
     39 H3         -0.1893    2.5252   -1.9275 H         1 <0>         0.0523
     40 H4         -0.1543    2.8322   -0.1746 H         1 <0>         0.0510
     41 H5          0.9988    0.6661    0.1818 H         1 <0>         0.0620
     42 H6         -0.5575    0.4322   -0.6499 H         1 <0>         0.0609
     43 H7          0.6211    0.3407   -2.8296 H         1 <0>         0.0635
     44 H8          2.1774    0.5746   -1.9979 H         1 <0>         0.0666
     45 H9          1.8092   -1.5184   -0.7202 H         1 <0>         0.0760
     46 H10         0.2529   -1.7523   -1.5519 H         1 <0>         0.0735
     47 H11         1.8669   -1.0770   -6.2384 H         1 <0>         0.1360
     48 H12         1.1157    0.2194   -8.1849 H         1 <0>         0.1275
     49 H13         1.7712   -4.6590   -8.6024 H         1 <0>         0.1354
     50 H14         1.8481   -3.5596  -11.5046 H         1 <0>         0.0648
     51 H15         0.6060   -4.5700  -10.7269 H         1 <0>         0.0636
     52 H16         0.1566   -3.0079  -11.4524 H         1 <0>         0.0661
     53 H17        -0.4095    0.7182   -9.5331 H         1 <0>         0.0552
     54 H18         1.2376    1.1358  -10.0633 H         1 <0>         0.0550
     55 H19        -0.0856    1.0527  -11.2510 H         1 <0>         0.0961
     56 H20         1.6737   -4.5611   -2.2348 H         1 <0>         0.1223
     57 H21         0.0793   -6.3404   -1.6432 H         1 <0>         0.1293
     58 H22        -1.1823   -2.8736   -4.9151 H         1 <0>         0.1314
     59 H23        -3.1135   -2.6929   -5.0741 H         1 <0>         0.0524
     60 H24        -2.6382   -3.8710   -6.3209 H         1 <0>         0.0542
     61 H25        -4.3350   -3.7699   -5.7926 H         1 <0>         0.0947
     62 H26        -1.0176   -8.0789   -2.0447 H         1 <0>         0.0594
     63 H27        -1.6594   -7.0667   -0.7288 H         1 <0>         0.0609
     64 H28        -3.9041   -8.0695   -1.0522 H         1 <0>         0.0724
     65 H29        -3.2622   -9.0817   -2.3682 H         1 <0>         0.0729
     66 H30        -1.6225  -10.0713   -0.7421 H         1 <0>         0.0731
     67 H31        -2.0049   -9.6785    1.6762 H         1 <0>         0.0554
     68 H32        -1.5746   -8.1654    0.8434 H         1 <0>         0.0573
     69 H33        -3.2688   -8.4885    1.2830 H         1 <0>         0.0560
     70 H34        -3.7812  -11.1922   -1.2241 H         1 <0>         0.0556
     71 H35        -3.2935  -11.4460    0.4688 H         1 <0>         0.0556
     72 H36        -4.5575  -10.2560    0.0757 H         1 <0>         0.0552
@<TRIPOS>BOND
     1    1    2 1
     2    1   38 1
     3    1   39 1
     4    1   40 1
     5    2    3 1
     6    2   41 1
     7    2   42 1
     8    3    4 1
     9    3   43 1
    10    3   44 1
    11    4    5 1
    12    4   45 1
    13    4   46 1
    14    5   10 am
    15    5    6 1
    16    6    7 1
    17    6    8 1
    18    6   24 1
    19    8    9 2
    20    8   13 1
    21    9   10 1
    22    9   12 1
    23   10   11 2
    24   13   14 2
    25   13   15 1
    26   15   20 ar
    27   15   16 ar
    28   16   17 ar
    29   16   47 1
    30   17   18 ar
    31   17   48 1
    32   18   19 ar
    33   18   22 1
    34   19   20 ar
    35   19   21 1
    36   20   49 1
    37   21   50 1
    38   21   51 1
    39   21   52 1
    40   22   23 1
    41   23   53 1
    42   23   54 1
    43   23   55 1
    44   24   29 ar
    45   24   25 ar
    46   25   26 ar
    47   25   56 1
    48   26   27 ar
    49   26   57 1
    50   27   28 ar
    51   27   32 1
    52   28   29 ar
    53   28   30 1
    54   29   58 1
    55   30   31 1
    56   31   59 1
    57   31   60 1
    58   31   61 1
    59   32   33 1
    60   33   34 1
    61   33   62 1
    62   33   63 1
    63   34   35 1
    64   34   64 1
    65   34   65 1
    66   35   36 1
    67   35   37 1
    68   35   66 1
    69   36   67 1
    70   36   68 1
    71   36   69 1
    72   37   70 1
    73   37   71 1
    74   37   72 1
@<TRIPOS>MOLECULE
ZINC59247675
   53    55     0     0     0
SMALL
USER_CHARGES

@<TRIPOS>ATOM
      1 C1          1.3420    1.5731   -0.5818 C.3       1 <0>        -0.1468
      2 C2          1.3607    0.0433   -0.5959 C.3       1 <0>         0.0645
      3 O1          1.7708   -0.4399    0.6849 O.3       1 <0>        -0.3192
      4 C3          1.8400   -1.7745    0.8408 C.2       1 <0>         0.4972
      5 O2          1.5298   -2.5885   -0.1846 O.3       1 <0>        -0.6260
      6 C4          2.2319   -2.3122    2.0609 C.2       1 <0>        -0.4610
      7 C5          2.3225   -3.7620    2.2793 C.2       1 <0>         0.3118
      8 S1          2.8569   -3.9068    3.9715 S.3       1 <0>        -0.0999
      9 C6          2.9701   -2.1860    4.4143 C.2       1 <0>        -0.1545
     10 C7          3.3376   -1.6513    5.6064 C.2       1 <0>        -0.0363
     11 C8          3.8530   -2.5192    6.6725 C.ar      1 <0>        -0.0509
     12 C9          4.3867   -3.7758    6.3590 C.ar      1 <0>        -0.0858
     13 C10         4.8686   -4.5861    7.3614 C.ar      1 <0>        -0.1134
     14 C11         4.8265   -4.1591    8.6856 C.ar      1 <0>         0.1938
     15 C12         4.2969   -2.9107    9.0025 C.ar      1 <0>        -0.0996
     16 C13         3.8176   -2.0908    8.0055 C.ar      1 <0>        -0.0719
     17 Br1         4.2431   -2.3376   10.8038 Br        1 <0>        -0.0532
     18 N1          5.3152   -4.9833    9.6969 N.pl3     1 <0>        -0.6823
     19 C14         6.7217   -4.8961   10.0973 C.3       1 <0>         0.1180
     20 C15         4.4226   -5.9372   10.3599 C.3       1 <0>         0.1197
     21 C16         2.5798   -1.4796    3.1867 C.2       1 <0>         0.4253
     22 O3          2.5479   -0.2619    3.1241 O.2       1 <0>        -0.4895
     23 N2          2.0675   -4.7306    1.4219 N.2       1 <0>        -0.4718
     24 C17         2.2073   -6.0361    1.8037 C.ar      1 <0>         0.0963
     25 C18         3.3329   -6.4380    2.5277 C.ar      1 <0>        -0.1308
     26 C19         3.4690   -7.7556    2.9108 C.ar      1 <0>        -0.1250
     27 C20         2.4905   -8.6823    2.5781 C.ar      1 <0>         0.0895
     28 C21         1.3705   -8.2880    1.8590 C.ar      1 <0>        -0.1872
     29 C22         1.2224   -6.9716    1.4762 C.ar      1 <0>        -0.0860
     30 O4          2.6298   -9.9806    2.9574 O.3       1 <0>        -0.3225
     31 C23         1.5860  -10.8817    2.5822 C.3       1 <0>         0.0298
     32 H1          2.3406    1.9466   -0.3553 H         1 <0>         0.0613
     33 H2          1.0291    1.9416   -1.5588 H         1 <0>         0.0673
     34 H3          0.6429    1.9209    0.1787 H         1 <0>         0.0613
     35 H4          0.3620   -0.3302   -0.8224 H         1 <0>         0.0555
     36 H5          2.0598   -0.3046   -1.3564 H         1 <0>         0.0555
     37 H6          3.2509   -0.5874    5.7707 H         1 <0>         0.1478
     38 H7          4.4196   -4.1084    5.3321 H         1 <0>         0.1490
     39 H8          5.2799   -5.5552    7.1203 H         1 <0>         0.1322
     40 H9          3.4111   -1.1209    8.2514 H         1 <0>         0.1360
     41 H10         6.8274   -4.1612   10.8954 H         1 <0>         0.0367
     42 H11         7.0593   -5.8696   10.4528 H         1 <0>         0.0571
     43 H12         7.3249   -4.5925    9.2417 H         1 <0>         0.0544
     44 H13         4.4444   -6.8870    9.8256 H         1 <0>         0.0351
     45 H14         4.7532   -6.0905   11.3872 H         1 <0>         0.0573
     46 H15         3.4061   -5.5437   10.3603 H         1 <0>         0.0546
     47 H16         4.0950   -5.7179    2.7865 H         1 <0>         0.1319
     48 H17         4.3386   -8.0672    3.4705 H         1 <0>         0.1256
     49 H18         0.6120   -9.0127    1.6024 H         1 <0>         0.1245
     50 H19         0.3487   -6.6650    0.9203 H         1 <0>         0.1269
     51 H20         0.6442  -10.5485    3.0182 H         1 <0>         0.0520
     52 H21         1.4965  -10.9019    1.4960 H         1 <0>         0.0518
     53 H22         1.8212  -11.8819    2.9460 H         1 <0>         0.0939
@<TRIPOS>BOND
     1    1    2 1
     2    1   32 1
     3    1   33 1
     4    1   34 1
     5    2    3 1
     6    2   35 1
     7    2   36 1
     8    3    4 1
     9    4    5 1
    10    4    6 2
    11    6    7 1
    12    6   21 1
    13    7   23 2
    14    7    8 1
    15    8    9 1
    16    9   10 2
    17    9   21 1
    18   10   11 1
    19   10   37 1
    20   11   16 ar
    21   11   12 ar
    22   12   13 ar
    23   12   38 1
    24   13   14 ar
    25   13   39 1
    26   14   15 ar
    27   14   18 1
    28   15   16 ar
    29   15   17 1
    30   16   40 1
    31   18   19 1
    32   18   20 1
    33   19   41 1
    34   19   42 1
    35   19   43 1
    36   20   44 1
    37   20   45 1
    38   20   46 1
    39   21   22 2
    40   23   24 1
    41   24   29 ar
    42   24   25 ar
    43   25   26 ar
    44   25   47 1
    45   26   27 ar
    46   26   48 1
    47   27   28 ar
    48   27   30 1
    49   28   29 ar
    50   28   49 1
    51   29   50 1
    52   30   31 1
    53   31   51 1
    54   31   52 1
    55   31   53 1
@<TRIPOS>MOLECULE
ZINC13493284
   52    56     0     0     0
SMALL
USER_CHARGES
2-[2-[[4-(6-chlorobenzothiophen-2-yl)sulfonyl-2-oxo-piperazin-1-yl]methyl]pyrrolo[3,2-c]pyridin-1-yl]acetic acid
@<TRIPOS>ATOM
      1 C1         -3.9774    2.6791   -9.3534 C.ar      1 <0>        -0.0370
      2 C2         -3.1692    2.2635  -10.3647 C.ar      1 <0>        -0.1212
      3 C3         -1.8385    2.6558  -10.4386 C.ar      1 <0>         0.0075
      4 C4         -1.3194    3.4873   -9.4644 C.ar      1 <0>        -0.0773
      5 C5         -2.1295    3.9148   -8.4347 C.ar      1 <0>        -0.0943
      6 C6         -3.4846    3.5306   -8.3368 C.ar      1 <0>        -0.1225
      7 C7         -4.1881    4.0766   -7.1851 C.2       1 <0>         0.0274
      8 C8         -3.5304    4.8734   -6.3311 C.2       1 <0>        -0.7419
      9 S1         -1.8893    4.9604   -7.0216 S.3       1 <0>         0.1609
     10 S2         -4.1441    5.6552   -4.8761 S.o2      1 <0>         2.7247
     11 O1         -5.5513    5.7681   -5.0385 O.2       1 <0>        -0.9349
     12 O2         -3.3118    6.7822   -4.6388 O.2       1 <0>        -0.9356
     13 N1         -3.8954    4.6095   -3.6164 N.pl3     1 <0>        -0.9978
     14 C9         -4.9113    3.6139   -3.2350 C.3       1 <0>         0.1043
     15 C10        -4.3003    2.2203   -3.4109 C.3       1 <0>         0.0922
     16 N2         -2.9721    2.1626   -2.8160 N.am      1 <0>        -0.5831
     17 C11        -2.1976    3.2244   -2.5885 C.2       1 <0>         0.5113
     18 O3         -1.0756    3.0420   -2.1655 O.2       1 <0>        -0.5346
     19 C12        -2.6514    4.6377   -2.8328 C.3       1 <0>         0.1148
     20 C13        -2.4476    0.8453   -2.4472 C.3       1 <0>         0.1668
     21 C14        -2.9459    0.4726   -1.0747 C.2       1 <0>         0.0775
     22 C15        -3.3123    1.3472   -0.1239 C.2       1 <0>        -0.1824
     23 C16        -3.7204    0.5632    1.0423 C.ar      1 <0>        -0.1649
     24 C17        -4.1888    0.8671    2.3190 C.ar      1 <0>         0.1525
     25 N3         -4.4765   -0.1026    3.1628 N.ar      1 <0>        -0.5126
     26 C18        -4.3374   -1.3792    2.8445 C.ar      1 <0>         0.0853
     27 C19        -3.8843   -1.7668    1.6143 C.ar      1 <0>        -0.1666
     28 C20        -3.5620   -0.7895    0.6749 C.ar      1 <0>         0.1462
     29 N4         -3.0947   -0.8084   -0.6135 N.pl3     1 <0>        -0.4334
     30 C21        -2.7931   -2.0191   -1.3812 C.3       1 <0>         0.0529
     31 C22        -4.0418   -2.4974   -2.0761 C.2       1 <0>         0.4505
     32 O4         -5.0775   -1.8893   -1.9437 O.co2     1 <0>        -0.6149
     33 Cl1        -0.8358    2.1061  -11.7447 Cl        1 <0>        -0.0470
     34 H1         -5.0073    2.3551   -9.3256 H         1 <0>         0.1439
     35 H2         -3.5708    1.6133  -11.1278 H         1 <0>         0.1445
     36 H3         -0.2867    3.8002   -9.5099 H         1 <0>         0.1471
     37 H4         -5.2293    3.8417   -7.0203 H         1 <0>         0.1569
     38 H5         -5.2008    3.7636   -2.1949 H         1 <0>         0.0998
     39 H6         -5.7855    3.7154   -3.8782 H         1 <0>         0.1161
     40 H7         -4.2279    1.9881   -4.4734 H         1 <0>         0.0725
     41 H8         -4.9426    1.4847   -2.9266 H         1 <0>         0.1053
     42 H9         -2.8320    5.1332   -1.8789 H         1 <0>         0.1178
     43 H10        -1.8823    5.1778   -3.3849 H         1 <0>         0.1230
     44 H11        -1.3581    0.8765   -2.4421 H         1 <0>         0.1116
     45 H12        -2.7865    0.1038   -3.1706 H         1 <0>         0.0936
     46 H13        -3.3036    2.4242   -0.2033 H         1 <0>         0.1378
     47 H14        -4.3162    1.8975    2.6165 H         1 <0>         0.1503
     48 H15        -4.5877   -2.1341    3.5751 H         1 <0>         0.1498
     49 H16        -3.7781   -2.8144    1.3742 H         1 <0>         0.1251
     50 H17        -2.4320   -2.7961   -0.7073 H         1 <0>         0.0933
     51 H18        -2.0265   -1.7970   -2.1236 H         1 <0>         0.0941
     52 O5         -4.0023   -3.5958   -2.8466 O.co2     1 <0>        -0.7556
@<TRIPOS>BOND
     1    1    6 ar
     2    1    2 ar
     3    1   34 1
     4    2    3 ar
     5    2   35 1
     6    3    4 ar
     7    3   33 1
     8    4    5 ar
     9    4   36 1
    10    5    9 1
    11    5    6 ar
    12    6    7 1
    13    7    8 2
    14    7   37 1
    15    8    9 1
    16    8   10 1
    17   10   11 2
    18   10   12 2
    19   10   13 1
    20   13   19 1
    21   13   14 1
    22   14   15 1
    23   14   38 1
    24   14   39 1
    25   15   16 1
    26   15   40 1
    27   15   41 1
    28   16   17 am
    29   16   20 1
    30   17   18 2
    31   17   19 1
    32   19   42 1
    33   19   43 1
    34   20   21 1
    35   20   44 1
    36   20   45 1
    37   21   29 1
    38   21   22 2
    39   22   23 1
    40   22   46 1
    41   23   28 ar
    42   23   24 ar
    43   24   25 ar
    44   24   47 1
    45   25   26 ar
    46   26   27 ar
    47   26   48 1
    48   27   28 ar
    49   27   49 1
    50   28   29 1
    51   29   30 1
    52   30   31 1
    53   30   50 1
    54   30   51 1
    55   31   32 2
    56   31   52 1
@<TRIPOS>MOLECULE
ZINC18120768
   68    72     0     0     0
SMALL
USER_CHARGES
(5S)-5-(2,3-dimethoxyphenyl)-3-hydroxy-4-[(2S)-2-methyl2,3-dihydrobenzofuran-5-carbonyl]-1-(2-morpholinoethyl)-5H-pyrrol-2-one
@<TRIPOS>ATOM
      1 C1          9.5019    5.9245    1.6083 C.3       1 <0>        -0.1557
      2 C2          9.2250    4.4504    1.9108 C.3       1 <0>         0.0712
      3 H1         10.1722    4.0057    2.2502 H         1 <0>         0.0855
      4 C3          8.0381    4.3061    2.8924 C.3       1 <0>        -0.0961
      5 C4          7.3576    3.0520    2.3779 C.ar      1 <0>        -0.1880
      6 C5          6.4217    2.2181    2.9371 C.ar      1 <0>        -0.0196
      7 C6          5.9716    1.1004    2.2262 C.ar      1 <0>        -0.1444
      8 C7          6.4738    0.8523    0.9449 C.ar      1 <0>        -0.0249
      9 C8          7.4037    1.6990    0.3910 C.ar      1 <0>        -0.1555
     10 C9          7.8573    2.8130    1.1004 C.ar      1 <0>         0.1169
     11 O1          8.7524    3.7697    0.7363 O.3       1 <0>        -0.3060
     12 C10         4.9703    0.1937    2.8214 C.2       1 <0>         0.5150
     13 O2          4.5959    0.3681    3.9662 O.2       1 <0>        -0.4792
     14 C11         4.4267   -0.9170    2.0334 C.2       1 <0>        -0.4897
     15 C12         4.5921   -2.2375    2.2787 C.2       1 <0>         0.2610
     16 C13         3.8801   -3.0166    1.2441 C.2       1 <0>         0.5135
     17 O3          3.8397   -4.2297    1.1893 O.2       1 <0>        -0.5339
     18 N1          3.2832   -2.1840    0.3720 N.am      1 <0>        -0.6140
     19 C14         3.5740   -0.8078    0.7909 C.3       1 <0>         0.2723
     20 H2          4.0867   -0.2683   -0.0191 H         1 <0>         0.0716
     21 C15         2.2923   -0.0799    1.1045 C.ar      1 <0>        -0.0506
     22 C16         1.1552   -0.7935    1.4363 C.ar      1 <0>        -0.1289
     23 C17        -0.0219   -0.1290    1.7244 C.ar      1 <0>        -0.0849
     24 C18        -0.0679    1.2525    1.6818 C.ar      1 <0>        -0.2087
     25 C19         1.0674    1.9733    1.3497 C.ar      1 <0>         0.1075
     26 C20         2.2530    1.3041    1.0600 C.ar      1 <0>         0.0718
     27 O4          3.3705    2.0074    0.7343 O.3       1 <0>        -0.3080
     28 C21         3.5602    2.3209   -0.6469 C.3       1 <0>         0.0344
     29 O5          1.0238    3.3319    1.3073 O.3       1 <0>        -0.3075
     30 C22        -0.2264    3.9509    1.6168 C.3       1 <0>         0.0245
     31 C23         2.4844   -2.5808   -0.7902 C.3       1 <0>         0.1376
     32 C24         3.3956   -2.7217   -2.0112 C.3       1 <0>         0.0375
     33 N2          2.5946   -3.1196   -3.1766 N.3       1 <0>        -0.5323
     34 C25         2.0446   -4.4717   -3.0010 C.3       1 <0>         0.0104
     35 C26         1.1705   -4.8219   -4.2081 C.3       1 <0>         0.0637
     36 O6          1.9474   -4.7044   -5.4031 O.3       1 <0>        -0.3875
     37 C27         2.4979   -3.4001   -5.6060 C.3       1 <0>         0.0638
     38 C28         3.3855   -3.0355   -4.4130 C.3       1 <0>         0.0168
     39 O7          5.2977   -2.7614    3.3075 O.3       1 <0>        -0.6528
     40 H3          9.8618    6.4245    2.5196 H         1 <0>         0.0769
     41 H4          8.5755    6.4088    1.2658 H         1 <0>         0.0649
     42 H5         10.2674    5.9999    0.8220 H         1 <0>         0.0665
     43 H6          8.4213    4.1997    3.9180 H         1 <0>         0.0875
     44 H7          7.4001    5.2000    2.8303 H         1 <0>         0.0889
     45 H8          6.0364    2.4223    3.9251 H         1 <0>         0.1283
     46 H9          6.1296   -0.0072    0.3888 H         1 <0>         0.1370
     47 H10         7.7859    1.5019   -0.5997 H         1 <0>         0.1248
     48 H11         1.1871   -1.8725    1.4706 H         1 <0>         0.1245
     49 H12        -0.9079   -0.6898    1.9831 H         1 <0>         0.1230
     50 H13        -0.9902    1.7691    1.9030 H         1 <0>         0.1260
     51 H14         4.4952    2.8873   -0.7692 H         1 <0>         0.0902
     52 H15         2.7148    2.9269   -1.0048 H         1 <0>         0.0409
     53 H16         3.6166    1.3898   -1.2298 H         1 <0>         0.0414
     54 H17        -0.1221    5.0436    1.5455 H         1 <0>         0.0971
     55 H18        -0.5280    3.6773    2.6386 H         1 <0>         0.0543
     56 H19        -0.9914    3.6083    0.9045 H         1 <0>         0.0520
     57 H20         1.9933   -3.5437   -0.5861 H         1 <0>         0.0788
     58 H21         1.7206   -1.8146   -0.9891 H         1 <0>         0.0851
     59 H22         3.8867   -1.7588   -2.2153 H         1 <0>         0.0795
     60 H23         4.1594   -3.4879   -1.8123 H         1 <0>         0.0436
     61 H24         2.8692   -5.1953   -2.9206 H         1 <0>         0.0460
     62 H25         1.4374   -4.5044   -2.0843 H         1 <0>         0.0913
     63 H26         0.8028   -5.8537   -4.1075 H         1 <0>         0.0981
     64 H27         0.3158   -4.1310   -4.2547 H         1 <0>         0.0598
     65 H28         3.0985   -3.3949   -6.5275 H         1 <0>         0.0970
     66 H29         1.6821   -2.6677   -5.6960 H         1 <0>         0.0595
     67 H30         3.7657   -2.0107   -4.5360 H         1 <0>         0.0869
     68 H31         4.2316   -3.7360   -4.3554 H         1 <0>         0.0434
@<TRIPOS>BOND
     1    1    2 1
     2    1   40 1
     3    1   41 1
     4    1   42 1
     5    2    3 1
     6    2   11 1
     7    2    4 1
     8    4    5 1
     9    4   43 1
    10    4   44 1
    11    5   10 ar
    12    5    6 ar
    13    6    7 ar
    14    6   45 1
    15    7    8 ar
    16    7   12 1
    17    8    9 ar
    18    8   46 1
    19    9   10 ar
    20    9   47 1
    21   10   11 1
    22   12   13 2
    23   12   14 1
    24   14   19 1
    25   14   15 2
    26   15   16 1
    27   15   39 1
    28   16   17 2
    29   16   18 am
    30   18   19 1
    31   18   31 1
    32   19   20 1
    33   19   21 1
    34   21   26 ar
    35   21   22 ar
    36   22   23 ar
    37   22   48 1
    38   23   24 ar
    39   23   49 1
    40   24   25 ar
    41   24   50 1
    42   25   26 ar
    43   25   29 1
    44   26   27 1
    45   27   28 1
    46   28   51 1
    47   28   52 1
    48   28   53 1
    49   29   30 1
    50   30   54 1
    51   30   55 1
    52   30   56 1
    53   31   32 1
    54   31   57 1
    55   31   58 1
    56   32   33 1
    57   32   59 1
    58   32   60 1
    59   33   38 1
    60   33   34 1
    61   34   35 1
    62   34   61 1
    63   34   62 1
    64   35   36 1
    65   35   63 1
    66   35   64 1
    67   36   37 1
    68   37   38 1
    69   37   65 1
    70   37   66 1
    71   38   67 1
    72   38   68 1
@<TRIPOS>MOLECULE
ZINC09008742
   55    59     0     0     0
SMALL
USER_CHARGES

@<TRIPOS>ATOM
      1 C1         -0.3665   -2.4423   -3.6248 C.ar      1 <0>        -0.1437
      2 C2          0.6721   -1.8406   -4.3228 C.ar      1 <0>        -0.0949
      3 C3          1.9590   -1.8634   -3.8297 C.ar      1 <0>        -0.1078
      4 C4          2.2257   -2.4941   -2.6203 C.ar      1 <0>         0.0603
      5 C5          1.1689   -3.1023   -1.9163 C.ar      1 <0>        -0.1377
      6 C6         -0.1289   -3.0684   -2.4340 C.ar      1 <0>        -0.0657
      7 C7          1.7693   -3.6660   -0.7090 C.2       1 <0>        -0.1560
      8 C8          3.0955   -3.3665   -0.7728 C.2       1 <0>        -0.0031
      9 O1          3.3519   -2.6761   -1.9032 O.3       1 <0>        -0.1650
     10 C9          4.0960   -3.7382    0.2365 C.2       1 <0>         0.5399
     11 C10         5.5157   -3.4530    0.0018 C.2       1 <0>        -0.5020
     12 C11         6.1559   -2.0881   -0.0993 C.3       1 <0>         0.2659
     13 H1          5.7241   -1.5322   -0.9315 H         1 <0>         0.0782
     14 N1          7.5849   -2.3237   -0.3370 N.am      1 <0>        -0.6098
     15 C12         7.7839   -3.6537   -0.3750 C.2       1 <0>         0.5138
     16 O2          8.8578   -4.1932   -0.5546 O.2       1 <0>        -0.5309
     17 C13         6.5054   -4.3614   -0.1602 C.2       1 <0>         0.2706
     18 O3          6.3484   -5.7055   -0.1318 O.3       1 <0>        -0.6467
     19 C14         8.6126   -1.2930   -0.5036 C.3       1 <0>         0.1421
     20 C15         9.2063   -0.9395    0.8615 C.3       1 <0>         0.0323
     21 N2         10.2368    0.0940    0.6946 N.3       1 <0>        -0.5319
     22 C16        11.3886   -0.4269   -0.0560 C.3       1 <0>         0.0112
     23 C17        12.4092    0.6962   -0.2583 C.3       1 <0>         0.0655
     24 O4         12.7874    1.2250    1.0155 O.3       1 <0>        -0.3879
     25 C18        11.6901    1.7415    1.7733 C.3       1 <0>         0.0655
     26 C19        10.6622    0.6290    1.9962 C.3       1 <0>         0.0190
     27 C20         5.9630   -1.3286    1.1879 C.ar      1 <0>        -0.0657
     28 C21         6.6524   -1.7085    2.3246 C.ar      1 <0>        -0.0722
     29 C22         6.4758   -1.0123    3.5056 C.ar      1 <0>        -0.1177
     30 C23         5.6098    0.0643    3.5506 C.ar      1 <0>        -0.0972
     31 C24         4.9204    0.4450    2.4137 C.ar      1 <0>        -0.0881
     32 C25         5.1014   -0.2489    1.2306 C.ar      1 <0>        -0.0845
     33 Br1         3.7352    1.9172    2.4749 Br        1 <0>        -0.0638
     34 O5          3.7468   -4.2833    1.2683 O.2       1 <0>        -0.4455
     35 H2         -1.3696   -2.4114   -4.0237 H         1 <0>         0.1264
     36 H3          0.4693   -1.3494   -5.2630 H         1 <0>         0.1321
     37 H4          2.7586   -1.3924   -4.3823 H         1 <0>         0.1322
     38 H5         -0.9403   -3.5346   -1.8950 H         1 <0>         0.1262
     39 H6          1.2633   -4.2100    0.0749 H         1 <0>         0.1641
     40 H7          9.4008   -1.6680   -1.1565 H         1 <0>         0.0786
     41 H8          8.1662   -0.4030   -0.9471 H         1 <0>         0.0842
     42 H9          8.4181   -0.5645    1.5144 H         1 <0>         0.0880
     43 H10         9.6528   -1.8295    1.3051 H         1 <0>         0.0402
     44 H11        11.8494   -1.2411    0.5032 H         1 <0>         0.0450
     45 H12        11.0546   -0.7943   -1.0264 H         1 <0>         0.0899
     46 H13        13.2900    0.3008   -0.7644 H         1 <0>         0.0967
     47 H14        11.9653    1.4868   -0.8633 H         1 <0>         0.0594
     48 H15        12.0507    2.1022    2.7366 H         1 <0>         0.0958
     49 H16        11.2252    2.5625    1.2274 H         1 <0>         0.0593
     50 H17         9.7979    1.0324    2.5239 H         1 <0>         0.0860
     51 H18        11.1114   -0.1683    2.5882 H         1 <0>         0.0423
     52 H19         7.3287   -2.5498    2.2899 H         1 <0>         0.1236
     53 H20         7.0142   -1.3097    4.3933 H         1 <0>         0.1274
     54 H21         5.4714    0.6078    4.4736 H         1 <0>         0.1271
     55 H22         4.5661    0.0503    0.3416 H         1 <0>         0.1293
@<TRIPOS>BOND
     1    1    6 ar
     2    1    2 ar
     3    1   35 1
     4    2    3 ar
     5    2   36 1
     6    3    4 ar
     7    3   37 1
     8    4    9 1
     9    4    5 ar
    10    5    6 ar
    11    5    7 1
    12    6   38 1
    13    7    8 2
    14    7   39 1
    15    8    9 1
    16    8   10 1
    17   10   11 1
    18   10   34 2
    19   11   17 2
    20   11   12 1
    21   12   14 1
    22   12   27 1
    23   12   13 1
    24   14   19 1
    25   14   15 am
    26   15   16 2
    27   15   17 1
    28   17   18 1
    29   19   20 1
    30   19   40 1
    31   19   41 1
    32   20   21 1
    33   20   42 1
    34   20   43 1
    35   21   26 1
    36   21   22 1
    37   22   23 1
    38   22   44 1
    39   22   45 1
    40   23   24 1
    41   23   46 1
    42   23   47 1
    43   24   25 1
    44   25   26 1
    45   25   48 1
    46   25   49 1
    47   26   50 1
    48   26   51 1
    49   27   32 ar
    50   27   28 ar
    51   28   29 ar
    52   28   52 1
    53   29   30 ar
    54   29   53 1
    55   30   31 ar
    56   30   54 1
    57   31   32 ar
    58   31   33 1
    59   32   55 1
@<TRIPOS>MOLECULE
ZINC40000391
   61    65     0     0     0
SMALL
USER_CHARGES

@<TRIPOS>ATOM
      1 C1          0.4363    0.6163   -3.2385 C.3       1 <0>        -0.1375
      2 C2          0.4770   -0.8456   -2.7890 C.3       1 <0>        -0.1136
      3 S1          0.9016   -0.9249   -1.0271 S.3       1 <0>         0.0257
      4 C3          0.9081   -2.6498   -0.6674 C.2       1 <0>        -0.0288
      5 N1          0.6730   -3.6864   -1.4595 N.2       1 <0>        -0.2488
      6 N2          0.7194   -4.8733   -1.0355 N.2       1 <0>        -0.3093
      7 C4          1.0053   -5.1569    0.2254 C.2       1 <0>         0.3288
      8 S2          1.2419   -3.5035    0.8707 S.3       1 <0>         0.0775
      9 N3          1.1003   -6.3873    0.8648 N.am      1 <0>        -0.4974
     10 C5          0.8991   -7.7014    0.2430 C.3       1 <0>         0.2715
     11 H1         -0.1142   -7.7783   -0.1513 H         1 <0>         0.0865
     12 C6          1.1095   -8.7214    1.3378 C.2       1 <0>        -0.4770
     13 C7          1.4013   -8.0295    2.4649 C.2       1 <0>         0.2688
     14 C8          1.3988   -6.5845    2.1617 C.2       1 <0>         0.5106
     15 O1          1.6302   -5.7029    2.9658 O.2       1 <0>        -0.4882
     16 O2          1.6587   -8.5760    3.6757 O.3       1 <0>        -0.6358
     17 C9          1.0154  -10.1778    1.2055 C.2       1 <0>         0.5110
     18 O3          1.9996  -10.8703    1.3881 O.2       1 <0>        -0.4680
     19 C10        -0.2730  -10.8051    0.8509 C.ar      1 <0>        -0.1638
     20 C11        -1.4309  -10.0278    0.7488 C.ar      1 <0>        -0.0311
     21 C12        -2.6287  -10.6126    0.4140 C.ar      1 <0>        -0.1519
     22 C13        -2.7026  -11.9861    0.1738 C.ar      1 <0>         0.1196
     23 C14        -1.5479  -12.7563    0.2848 C.ar      1 <0>        -0.1905
     24 C15        -0.3444  -12.1810    0.6087 C.ar      1 <0>        -0.0215
     25 C16        -1.9430  -14.1918   -0.0051 C.3       1 <0>        -0.1032
     26 C17        -3.4841  -14.1291    0.1144 C.3       1 <0>         0.0765
     27 H2         -3.9550  -14.7847   -0.6181 H         1 <0>         0.1132
     28 O4         -3.7708  -12.7510   -0.1771 O.3       1 <0>        -0.3008
     29 C18        -3.9329  -14.4922    1.5313 C.3       1 <0>        -0.1720
     30 C19         1.9020   -7.9110   -0.8621 C.ar      1 <0>        -0.1247
     31 C20         3.2242   -7.5541   -0.6705 C.ar      1 <0>        -0.0445
     32 C21         4.1459   -7.7448   -1.6812 C.ar      1 <0>        -0.1936
     33 C22         3.7435   -8.2957   -2.8912 C.ar      1 <0>         0.2089
     34 C23         2.4145   -8.6530   -3.0803 C.ar      1 <0>        -0.1940
     35 C24         1.4991   -8.4649   -2.0634 C.ar      1 <0>        -0.0509
     36 N4          4.6729   -8.4895   -3.9156 N.pl3     1 <0>        -0.6427
     37 C25         6.0740   -8.1116   -3.7146 C.3       1 <0>         0.0968
     38 C26         4.2467   -9.0707   -5.1911 C.3       1 <0>         0.0978
     39 H3          1.4133    1.0727   -3.0793 H         1 <0>         0.0663
     40 H4          0.1812    0.6639   -4.2972 H         1 <0>         0.0784
     41 H5         -0.3145    1.1537   -2.6593 H         1 <0>         0.0666
     42 H6         -0.4999   -1.3021   -2.9482 H         1 <0>         0.0951
     43 H7          1.2279   -1.3831   -3.3681 H         1 <0>         0.0947
     44 H8         -1.3839   -8.9648    0.9339 H         1 <0>         0.1412
     45 H9         -3.5188  -10.0058    0.3364 H         1 <0>         0.1289
     46 H10         0.5447  -12.7900    0.6801 H         1 <0>         0.1317
     47 H11        -1.6418  -14.4831   -1.0113 H         1 <0>         0.0885
     48 H12        -1.5219  -14.8693    0.7376 H         1 <0>         0.0908
     49 H13        -3.4961  -13.7904    2.2418 H         1 <0>         0.0654
     50 H14        -5.0201  -14.4415    1.5922 H         1 <0>         0.0662
     51 H15        -3.6024  -15.5032    1.7693 H         1 <0>         0.0739
     52 H16         3.5364   -7.1255    0.2704 H         1 <0>         0.1091
     53 H17         5.1783   -7.4656   -1.5310 H         1 <0>         0.1166
     54 H18         2.0982   -9.0813   -4.0200 H         1 <0>         0.1184
     55 H19         0.4666   -8.7465   -2.2082 H         1 <0>         0.1197
     56 H20         6.6234   -8.9586   -3.3036 H         1 <0>         0.0449
     57 H21         6.5130   -7.8227   -4.6696 H         1 <0>         0.0610
     58 H22         6.1281   -7.2725   -3.0211 H         1 <0>         0.0668
     59 H23         3.9391   -8.2741   -5.8686 H         1 <0>         0.0433
     60 H24         5.0753   -9.6239   -5.6332 H         1 <0>         0.0610
     61 H25         3.4086   -9.7464   -5.0205 H         1 <0>         0.0679
@<TRIPOS>BOND
     1    1    2 1
     2    1   39 1
     3    1   40 1
     4    1   41 1
     5    2    3 1
     6    2   42 1
     7    2   43 1
     8    3    4 1
     9    4    8 1
    10    4    5 2
    11    5    6 1
    12    6    7 2
    13    7    8 1
    14    7    9 1
    15    9   14 am
    16    9   10 1
    17   10   11 1
    18   10   12 1
    19   10   30 1
    20   12   13 2
    21   12   17 1
    22   13   14 1
    23   13   16 1
    24   14   15 2
    25   17   18 2
    26   17   19 1
    27   19   24 ar
    28   19   20 ar
    29   20   21 ar
    30   20   44 1
    31   21   22 ar
    32   21   45 1
    33   22   28 1
    34   22   23 ar
    35   23   24 ar
    36   23   25 1
    37   24   46 1
    38   25   26 1
    39   25   47 1
    40   25   48 1
    41   26   27 1
    42   26   28 1
    43   26   29 1
    44   29   49 1
    45   29   50 1
    46   29   51 1
    47   30   35 ar
    48   30   31 ar
    49   31   32 ar
    50   31   52 1
    51   32   33 ar
    52   32   53 1
    53   33   34 ar
    54   33   36 1
    55   34   35 ar
    56   34   54 1
    57   35   55 1
    58   36   37 1
    59   36   38 1
    60   37   56 1
    61   37   57 1
    62   37   58 1
    63   38   59 1
    64   38   60 1
    65   38   61 1
@<TRIPOS>MOLECULE
ZINC40475501
   49    53     0     0     0
SMALL
USER_CHARGES

@<TRIPOS>ATOM
      1 C1          0.3314    1.1213   -0.0196 C.3       1 <0>        -0.1527
      2 C2          0.2858   -0.4080   -0.0207 C.3       1 <0>         0.0610
      3 O1         -1.0751   -0.8440   -0.0096 O.3       1 <0>        -0.3486
      4 C3         -1.2914   -2.1739   -0.0091 C.2       1 <0>         0.5129
      5 O2         -0.3504   -2.9424   -0.0179 O.2       1 <0>        -0.5060
      6 C4         -2.6707   -2.6968    0.0021 C.ar      1 <0>        -0.1439
      7 C5         -3.7546   -1.8142    0.0065 C.ar      1 <0>        -0.0359
      8 C6         -5.0406   -2.3061    0.0170 C.ar      1 <0>        -0.1578
      9 C7         -5.2618   -3.6791    0.0233 C.ar      1 <0>         0.1660
     10 C8         -4.1859   -4.5604    0.0190 C.ar      1 <0>        -0.1544
     11 C9         -2.8971   -4.0761    0.0026 C.ar      1 <0>        -0.0289
     12 N1         -6.5688   -4.1745    0.0345 N.am      1 <0>        -0.5305
     13 C10        -6.8614   -5.5013    0.0464 C.2       1 <0>         0.5566
     14 O3         -6.0920   -6.4152    0.2522 O.2       1 <0>        -0.4372
     15 C11        -8.3252   -5.6066   -0.2456 C.3       1 <0>        -0.1179
     16 H1         -8.4834   -5.6003   -1.3240 H         1 <0>         0.1485
     17 C12        -9.1173   -6.7316    0.3748 C.3       1 <0>         0.0812
     18 H2         -8.7641   -7.6868   -0.0137 H         1 <0>         0.1140
     19 C13       -10.5625   -6.5453    0.0196 C.2       1 <0>        -0.2982
     20 C14       -11.2177   -5.4221   -0.4003 C.2       1 <0>         0.1148
     21 N2        -12.5116   -5.5933   -0.6636 N.2       1 <0>        -0.5559
     22 C15       -13.1044   -6.7576   -0.5064 C.2       1 <0>         0.2829
     23 S1        -14.7917   -7.1740   -0.7963 S.3       1 <0>        -0.7139
     24 S2        -11.8603   -7.7539    0.0389 S.3       1 <0>         0.0648
     25 S3        -10.3571   -3.8637   -0.5519 S.3       1 <0>         0.0082
     26 C16        -8.8345   -4.2656    0.3628 C.3       1 <0>        -0.1501
     27 H3         -9.0061   -4.3466    1.4362 H         1 <0>         0.1609
     28 C17        -7.6667   -3.3757    0.0402 C.2       1 <0>         0.5673
     29 O4         -7.6996   -2.1830   -0.1739 O.2       1 <0>        -0.4306
     30 C18        -8.9541   -6.7013    1.8726 C.ar      1 <0>        -0.0848
     31 C19        -9.8034   -5.9310    2.6447 C.ar      1 <0>        -0.0948
     32 C20        -9.6542   -5.9028    4.0185 C.ar      1 <0>        -0.1081
     33 C21        -8.6546   -6.6458    4.6209 C.ar      1 <0>        -0.0317
     34 C22        -7.8049   -7.4166    3.8476 C.ar      1 <0>        -0.1095
     35 C23        -7.9586   -7.4484    2.4744 C.ar      1 <0>        -0.0894
     36 Cl1        -8.4662   -6.6105    6.3463 Cl        1 <0>        -0.0740
     37 H4          1.3694    1.4538   -0.0281 H         1 <0>         0.0797
     38 H5         -0.1789    1.5007   -0.9048 H         1 <0>         0.0675
     39 H6         -0.1637    1.4989    0.8751 H         1 <0>         0.0674
     40 H7          0.7809   -0.7856   -0.9154 H         1 <0>         0.0684
     41 H8          0.7961   -0.7875    0.8645 H         1 <0>         0.0683
     42 H9         -3.5835   -0.7478    0.0020 H         1 <0>         0.1466
     43 H10        -5.8785   -1.6247    0.0208 H         1 <0>         0.1630
     44 H11        -4.3617   -5.6260    0.0239 H         1 <0>         0.1649
     45 H12        -2.0622   -4.7611   -0.0056 H         1 <0>         0.1460
     46 H13       -10.5835   -5.3508    2.1744 H         1 <0>         0.1350
     47 H14       -10.3176   -5.3007    4.6216 H         1 <0>         0.1352
     48 H15        -7.0242   -7.9966    4.3172 H         1 <0>         0.1341
     49 H16        -7.2984   -8.0538    1.8710 H         1 <0>         0.1395
@<TRIPOS>BOND
     1    1    2 1
     2    1   37 1
     3    1   38 1
     4    1   39 1
     5    2    3 1
     6    2   40 1
     7    2   41 1
     8    3    4 1
     9    4    5 2
    10    4    6 1
    11    6   11 ar
    12    6    7 ar
    13    7    8 ar
    14    7   42 1
    15    8    9 ar
    16    8   43 1
    17    9   10 ar
    18    9   12 1
    19   10   11 ar
    20   10   44 1
    21   11   45 1
    22   12   28 am
    23   12   13 am
    24   13   14 2
    25   13   15 1
    26   15   16 1
    27   15   26 1
    28   15   17 1
    29   17   18 1
    30   17   19 1
    31   17   30 1
    32   19   24 1
    33   19   20 2
    34   20   21 1
    35   20   25 1
    36   21   22 2
    37   22   23 1
    38   22   24 1
    39   25   26 1
    40   26   27 1
    41   26   28 1
    42   28   29 2
    43   30   35 ar
    44   30   31 ar
    45   31   32 ar
    46   31   46 1
    47   32   33 ar
    48   32   47 1
    49   33   34 ar
    50   33   36 1
    51   34   35 ar
    52   34   48 1
    53   35   49 1
@<TRIPOS>MOLECULE
ZINC13274621
   35    36     0     0     0
SMALL
USER_CHARGES
5-[4-[(E)-3-hydroxy-3-oxo-prop-1-enyl]-2-nitro-phenoxy]benzene-1,3-dicarboxylic acid
@<TRIPOS>ATOM
      1 C1         -3.1885    2.9882    0.1200 C.ar      1 <0>        -0.0552
      2 C2         -2.0547    3.7687    0.1007 C.ar      1 <0>        -0.1243
      3 C3         -2.1623    5.1542    0.0551 C.ar      1 <0>         0.1607
      4 C4         -3.4144    5.7583    0.0171 C.ar      1 <0>        -0.0554
      5 C5         -4.5539    4.9868    0.0303 C.ar      1 <0>        -0.0398
      6 C6         -4.4511    3.5913    0.0820 C.ar      1 <0>        -0.0443
      7 C7         -5.6647    2.7627    0.0958 C.2       1 <0>        -0.1021
      8 C8         -5.5629    1.4165    0.1457 C.2       1 <0>        -0.1432
      9 C9         -6.7337    0.6171    0.1590 C.2       1 <0>         0.4747
     10 O1         -7.8299    1.1433    0.1255 O.co2     1 <0>        -0.6374
     11 N1         -3.5216    7.2336   -0.0370 N.pl3     1 <0>         0.0345
     12 O2         -4.6176    7.7638   -0.0702 O.2       1 <0>        -0.1865
     13 O3         -2.5137    7.9175   -0.0483 O.3       1 <0>        -0.1253
     14 O4         -1.0415    5.9194    0.0419 O.3       1 <0>        -0.2541
     15 C10        -0.5621    6.3693    1.2313 C.ar      1 <0>         0.0835
     16 C11         0.6362    7.0643    1.2750 C.ar      1 <0>        -0.0853
     17 C12         1.1326    7.5279    2.4953 C.ar      1 <0>        -0.1062
     18 C13         0.4213    7.2908    3.6701 C.ar      1 <0>        -0.0716
     19 C14        -0.7832    6.5915    3.6217 C.ar      1 <0>        -0.1033
     20 C15        -1.2699    6.1268    2.3979 C.ar      1 <0>        -0.1507
     21 C16        -1.5412    6.3369    4.8642 C.2       1 <0>         0.4962
     22 O5         -1.1146    6.7371    5.9287 O.co2     1 <0>        -0.6336
     23 C17         2.4105    8.2683    2.5408 C.2       1 <0>         0.5023
     24 O6          2.8417    8.6708    3.6027 O.co2     1 <0>        -0.6331
     25 H1         -3.1039    1.9123    0.1596 H         1 <0>         0.1508
     26 H2         -1.0800    3.3043    0.1256 H         1 <0>         0.1534
     27 H3         -5.5258    5.4569    0.0012 H         1 <0>         0.1573
     28 H4         -6.6379    3.2299    0.0660 H         1 <0>         0.1351
     29 H5         -4.5896    0.9493    0.1755 H         1 <0>         0.1093
     30 H6          1.1866    7.2479    0.3642 H         1 <0>         0.1347
     31 H7          0.8023    7.6483    4.6153 H         1 <0>         0.1341
     32 H8         -2.2011    5.5809    2.3602 H         1 <0>         0.1216
     33 O7         -6.6320   -0.7275    0.2089 O.co2     1 <0>        -0.7693
     34 O8         -2.7054    5.6609    4.8164 O.co2     1 <0>        -0.7614
     35 O9          3.0973    8.4970    1.4048 O.co2     1 <0>        -0.7660
@<TRIPOS>BOND
     1    1    6 ar
     2    1    2 ar
     3    1   25 1
     4    2    3 ar
     5    2   26 1
     6    3    4 ar
     7    3   14 1
     8    4    5 ar
     9    4   11 1
    10    5    6 ar
    11    5   27 1
    12    6    7 1
    13    7    8 2
    14    7   28 1
    15    8    9 1
    16    8   29 1
    17    9   10 2
    18    9   33 1
    19   11   12 2
    20   11   13 1
    21   14   15 1
    22   15   20 ar
    23   15   16 ar
    24   16   17 ar
    25   16   30 1
    26   17   18 ar
    27   17   23 1
    28   18   19 ar
    29   18   31 1
    30   19   20 ar
    31   19   21 1
    32   20   32 1
    33   21   22 2
    34   21   34 1
    35   23   24 2
    36   23   35 1
@<TRIPOS>MOLECULE
ZINC32097529
   39    41     0     0     0
SMALL
USER_CHARGES
5-[(2-tert-butyl-1,3-benzoxazol-5-yl)sulfamoyl]thiophene-3-carboxylic acid
@<TRIPOS>ATOM
      1 C1         -1.2658    7.0803   -7.6214 C.3       1 <0>        -0.1371
      2 C2         -1.9611    7.2216   -6.2658 C.3       1 <0>         0.0333
      3 C3         -3.4093    6.7423   -6.3830 C.3       1 <0>        -0.1446
      4 C4         -1.9430    8.6892   -5.8339 C.3       1 <0>        -0.1429
      5 C5         -1.2372    6.3873   -5.2406 C.2       1 <0>         0.2243
      6 N1          0.0088    6.5392   -4.9054 N.2       1 <0>        -0.4718
      7 C6          0.3231    5.6169   -3.9555 C.ar      1 <0>         0.0364
      8 C7          1.4884    5.3205   -3.2469 C.ar      1 <0>        -0.1043
      9 C8          1.4843    4.2921   -2.3222 C.ar      1 <0>         0.2233
     10 C9          0.3254    3.5511   -2.1013 C.ar      1 <0>        -0.1165
     11 C10        -0.8307    3.8413   -2.7933 C.ar      1 <0>        -0.0932
     12 C11        -0.8415    4.8697   -3.7237 C.ar      1 <0>        -0.0364
     13 O1         -1.7876    5.3814   -4.5432 O.3       1 <0>        -0.2220
     14 N2          2.6501    3.9910   -1.6099 N.2       1 <0>        -1.0891
     15 S1          2.7878    4.4362   -0.0208 S.o2      1 <0>         2.6272
     16 O2          4.0826    4.0327    0.4033 O.2       1 <0>        -1.0005
     17 O3          1.6024    3.9972    0.6281 O.2       1 <0>        -1.0363
     18 C12         2.7672    6.1974    0.0304 C.2       1 <0>        -0.7306
     19 C13         1.7028    7.0213    0.0859 C.2       1 <0>         0.0038
     20 C14         1.9703    8.4376    0.1186 C.2       1 <0>        -0.1839
     21 C15         3.2946    8.8264    0.0903 C.2       1 <0>        -0.1527
     22 S2          4.1486    7.3216    0.0216 S.3       1 <0>         0.1182
     23 C16         0.8815    9.4237    0.1799 C.2       1 <0>         0.5099
     24 O4         -0.2754    9.0511    0.2041 O.co2     1 <0>        -0.6325
     25 O5          1.1660   10.7410    0.2093 O.co2     1 <0>        -0.7677
     26 H1         -0.2246    7.4249   -7.5371 H         1 <0>         0.0712
     27 H2         -1.7942    7.6893   -8.3697 H         1 <0>         0.0660
     28 H3         -1.2788    6.0251   -7.9319 H         1 <0>         0.0568
     29 H4         -3.9091    6.8439   -5.4084 H         1 <0>         0.0644
     30 H5         -3.4223    5.6871   -6.6935 H         1 <0>         0.0612
     31 H6         -3.9376    7.3513   -7.1313 H         1 <0>         0.0657
     32 H7         -2.4429    8.7908   -4.8593 H         1 <0>         0.0629
     33 H8         -2.4713    9.2982   -6.5822 H         1 <0>         0.0663
     34 H9         -0.9018    9.0338   -5.7496 H         1 <0>         0.0728
     35 H10         2.3889    5.8910   -3.4202 H         1 <0>         0.1230
     36 H11         0.3318    2.7470   -1.3803 H         1 <0>         0.1330
     37 H12        -1.7265    3.2653   -2.6144 H         1 <0>         0.1180
     38 H13         0.6935    6.6376    0.1053 H         1 <0>         0.1398
     39 H14         3.7000    9.8272    0.1073 H         1 <0>         0.1845
@<TRIPOS>BOND
     1    1    2 1
     2    1   26 1
     3    1   27 1
     4    1   28 1
     5    2    3 1
     6    2    4 1
     7    2    5 1
     8    3   29 1
     9    3   30 1
    10    3   31 1
    11    4   32 1
    12    4   33 1
    13    4   34 1
    14    5   13 1
    15    5    6 2
    16    6    7 1
    17    7   12 ar
    18    7    8 ar
    19    8    9 ar
    20    8   35 1
    21    9   10 ar
    22    9   14 1
    23   10   11 ar
    24   10   36 1
    25   11   12 ar
    26   11   37 1
    27   12   13 1
    28   14   15 1
    29   15   16 2
    30   15   17 2
    31   15   18 1
    32   18   22 1
    33   18   19 2
    34   19   20 1
    35   19   38 1
    36   20   21 2
    37   20   23 1
    38   21   22 1
    39   21   39 1
    40   23   24 2
    41   23   25 1
@<TRIPOS>MOLECULE
ZINC13447237
   48    49     0     0     0
SMALL
USER_CHARGES

@<TRIPOS>ATOM
      1 C1          0.6487   -0.2686    1.3646 C.3       1 <0>        -0.1594
      2 C2         -0.0060    0.0105    0.0102 C.3       1 <0>        -0.1144
      3 C3         -1.3928   -0.6346   -0.0284 C.3       1 <0>         0.1495
      4 H1         -2.0102   -0.2218    0.7694 H         1 <0>         0.0680
      5 C4         -1.2599   -2.1495    0.1566 C.3       1 <0>        -0.1322
      6 C5         -2.6320   -2.8035   -0.0216 C.3       1 <0>        -0.1190
      7 C6         -3.1479   -2.5332   -1.4368 C.3       1 <0>        -0.1357
      8 C7         -3.3022   -1.0227   -1.6399 C.3       1 <0>         0.1014
      9 N1         -2.0242   -0.3677   -1.3280 N.am      1 <0>        -0.6099
     10 C8         -1.4405    0.4591   -2.2181 C.2       1 <0>         0.5398
     11 O1         -0.3387    0.9130   -1.9922 O.2       1 <0>        -0.5181
     12 C9         -2.1569    0.8196   -3.4940 C.3       1 <0>        -0.1365
     13 S1         -1.1197    1.9394   -4.4741 S.3       1 <0>         0.0038
     14 C10        -2.0836    2.2632   -5.9131 C.ar      1 <0>         0.3035
     15 N2         -3.2792    1.7030   -6.0299 N.ar      1 <0>        -0.6245
     16 C11        -4.0293    1.9272   -7.1015 C.ar      1 <0>         0.4452
     17 O2         -5.2514    1.3530   -7.2171 O.3       1 <0>        -0.6935
     18 C12        -3.5426    2.7621   -8.1068 C.ar      1 <0>        -0.2708
     19 C13        -2.2912    3.3269   -7.9473 C.ar      1 <0>         0.1569
     20 N3         -1.5976    3.0650   -6.8498 N.ar      1 <0>        -0.5845
     21 C14        -1.7245    4.2351   -9.0079 C.3       1 <0>        -0.0908
     22 C15        -4.3625    3.0421   -9.3399 C.3       1 <0>        -0.0167
     23 C16        -5.2375    4.2744   -9.1016 C.3       1 <0>        -0.1641
     24 C17        -6.0574    4.5543  -10.3346 C.2       1 <0>         0.4943
     25 O3         -5.9518    3.8349  -11.3133 O.co2     1 <0>        -0.7034
     26 O4         -6.8265    5.5002  -10.3536 O.co2     1 <0>        -0.7221
     27 H2          1.6690    0.1149    1.3608 H         1 <0>         0.0537
     28 H3          0.0784    0.2237    2.1522 H         1 <0>         0.0475
     29 H4          0.6652   -1.3434    1.5456 H         1 <0>         0.0504
     30 H5         -0.1019    1.0869   -0.1320 H         1 <0>         0.0881
     31 H6          0.6114   -0.4075   -0.7849 H         1 <0>         0.0764
     32 H7         -0.5680   -2.5474   -0.5858 H         1 <0>         0.0671
     33 H8         -0.8827   -2.3621    1.1569 H         1 <0>         0.0731
     34 H9         -2.5446   -3.8788    0.1339 H         1 <0>         0.0623
     35 H10        -3.3298   -2.3872    0.7050 H         1 <0>         0.0623
     36 H11        -2.4383   -2.9275   -2.1642 H         1 <0>         0.0685
     37 H12        -4.1145   -3.0189   -1.5707 H         1 <0>         0.0766
     38 H13        -3.5741   -0.8191   -2.6757 H         1 <0>         0.0965
     39 H14        -4.0774   -0.6419   -0.9749 H         1 <0>         0.0701
     40 H15        -2.3562   -0.0860   -4.0670 H         1 <0>         0.1150
     41 H16        -3.0990    1.3129   -3.2548 H         1 <0>         0.1160
     42 H17        -2.0133    5.2647   -8.7968 H         1 <0>         0.0654
     43 H18        -0.6374    4.1560   -9.0111 H         1 <0>         0.0595
     44 H19        -2.1130    3.9415   -9.9831 H         1 <0>         0.0739
     45 H20        -3.6980    3.2260  -10.1840 H         1 <0>         0.0495
     46 H21        -4.9968    2.1827   -9.5573 H         1 <0>         0.0632
     47 H22        -5.9020    4.0904   -8.2574 H         1 <0>         0.0539
     48 H23        -4.6033    5.1338   -8.8842 H         1 <0>         0.0440
@<TRIPOS>BOND
     1    1    2 1
     2    1   27 1
     3    1   28 1
     4    1   29 1
     5    2    3 1
     6    2   30 1
     7    2   31 1
     8    3    4 1
     9    3    9 1
    10    3    5 1
    11    5    6 1
    12    5   32 1
    13    5   33 1
    14    6    7 1
    15    6   34 1
    16    6   35 1
    17    7    8 1
    18    7   36 1
    19    7   37 1
    20    8    9 1
    21    8   38 1
    22    8   39 1
    23    9   10 am
    24   10   11 2
    25   10   12 1
    26   12   13 1
    27   12   40 1
    28   12   41 1
    29   13   14 1
    30   14   20 ar
    31   14   15 ar
    32   15   16 ar
    33   16   17 1
    34   16   18 ar
    35   18   19 ar
    36   18   22 1
    37   19   20 ar
    38   19   21 1
    39   21   42 1
    40   21   43 1
    41   21   44 1
    42   22   23 1
    43   22   45 1
    44   22   46 1
    45   23   24 1
    46   23   47 1
    47   23   48 1
    48   24   25 2
    49   24   26 1
@<TRIPOS>MOLECULE
ZINC39843644
   33    35     0     0     0
SMALL
USER_CHARGES

@<TRIPOS>ATOM
      1 C1          0.1583    2.1497    0.9808 C.3       1 <0>        -0.1092
      2 C2         -0.2945    0.7399    0.5955 C.3       1 <0>        -0.1391
      3 H1         -0.1897    0.5704   -0.4761 H         1 <0>         0.1195
      4 C3         -1.7178    0.4634    1.0670 C.2       1 <0>         0.5217
      5 O1         -2.6876    1.0857    0.6800 O.2       1 <0>        -0.5468
      6 N1         -1.7836   -0.5162    1.9326 N.2       1 <0>        -0.7321
      7 C4         -0.7383   -1.1998    2.3603 C.2       1 <0>         0.4238
      8 N2         -0.7387   -2.2289    3.2579 N.2       1 <0>        -0.5801
      9 C5         -1.9483   -2.8001    3.6664 C.ar      1 <0>         0.1989
     10 C6         -3.0664   -2.7233    2.8460 C.ar      1 <0>        -0.1752
     11 C7         -4.2591   -3.2887    3.2521 C.ar      1 <0>        -0.0103
     12 C8         -4.3410   -3.9309    4.4741 C.ar      1 <0>        -0.6701
     13 C9         -3.2297   -4.0088    5.2934 C.ar      1 <0>        -0.0138
     14 C10        -2.0325   -3.4504    4.8907 C.ar      1 <0>        -0.1667
     15 S1         -5.8646   -4.6510    4.9884 S.o2      1 <0>         2.6493
     16 O2         -5.8243   -4.7166    6.4073 O.2       1 <0>        -1.0222
     17 O3         -6.8941   -3.9680    4.2863 O.2       1 <0>        -1.0193
     18 N3         -5.8763   -6.2144    4.4425 N.2       1 <0>        -1.0296
     19 C11        -6.9652   -7.0315    4.7033 C.2       1 <0>         0.4103
     20 N4         -8.0694   -6.7388    5.3568 N.2       1 <0>        -0.6714
     21 C12        -9.0233   -7.6383    5.5210 C.2       1 <0>         0.1064
     22 C13        -8.8109   -8.8657    4.9886 C.2       1 <0>        -0.3616
     23 S2         -7.1994   -8.6366    4.2549 S.3       1 <0>        -0.0072
     24 S3          0.5961   -0.5423    1.5696 S.3       1 <0>        -0.1746
     25 H2          1.2020    2.2861    0.6978 H         1 <0>         0.0592
     26 H3         -0.4579    2.8838    0.4616 H         1 <0>         0.0692
     27 H4          0.0533    2.2835    2.0574 H         1 <0>         0.0599
     28 H5         -3.0032   -2.2216    1.8917 H         1 <0>         0.1389
     29 H6         -5.1290   -3.2290    2.6148 H         1 <0>         0.1221
     30 H7         -3.2970   -4.5107    6.2473 H         1 <0>         0.1256
     31 H8         -1.1638   -3.5154    5.5291 H         1 <0>         0.1176
     32 H9         -9.9319   -7.4054    6.0563 H         1 <0>         0.1412
     33 H10        -9.4437   -9.7407    5.0013 H         1 <0>         0.1658
@<TRIPOS>BOND
     1    1    2 1
     2    1   25 1
     3    1   26 1
     4    1   27 1
     5    2    3 1
     6    2   24 1
     7    2    4 1
     8    4    5 2
     9    4    6 1
    10    6    7 2
    11    7    8 1
    12    7   24 1
    13    8    9 1
    14    9   14 ar
    15    9   10 ar
    16   10   11 ar
    17   10   28 1
    18   11   12 ar
    19   11   29 1
    20   12   13 ar
    21   12   15 1
    22   13   14 ar
    23   13   30 1
    24   14   31 1
    25   15   16 2
    26   15   17 2
    27   15   18 1
    28   18   19 1
    29   19   23 1
    30   19   20 2
    31   20   21 1
    32   21   22 2
    33   21   32 1
    34   22   23 1
    35   22   33 1
@<TRIPOS>MOLECULE
ZINC12654041
   50    51     0     0     0
SMALL
USER_CHARGES

@<TRIPOS>ATOM
      1 C1          0.2869   -0.7243   -1.0241 C.3       1 <0>        -0.1289
      2 C2          0.7172    0.5623   -0.3171 C.3       1 <0>        -0.1015
      3 C3          1.6065    1.3865   -1.2505 C.3       1 <0>        -0.0726
      4 C4          2.0481    2.6640   -0.5275 C.3       1 <0>        -0.1089
      5 C5          2.8323    2.2732    0.7317 C.3       1 <0>        -0.1683
      6 C6          3.9208    1.3011    0.3327 C.2       1 <0>         0.4968
      7 O1          5.0608    1.4599    0.7001 O.2       1 <0>        -0.4834
      8 O2          3.5821    0.2513   -0.4449 O.3       1 <0>        -0.3800
      9 C7          2.8445    0.5699   -1.6296 C.3       1 <0>         0.3221
     10 C8          2.4163   -0.7202   -2.3291 C.3       1 <0>        -0.0654
     11 C9          1.5272   -1.5410   -1.3929 C.3       1 <0>        -0.1031
     12 C10         3.6571   -1.5356   -2.6982 C.3       1 <0>        -0.0828
     13 C11         3.2271   -2.8865   -3.2735 C.3       1 <0>        -0.1756
     14 C12         4.4487   -3.6786   -3.6626 C.2       1 <0>         0.4931
     15 O3          5.5602   -3.2063   -3.4954 O.co2     1 <0>        -0.7029
     16 O4          4.3255   -4.7916   -4.1448 O.co2     1 <0>        -0.7229
     17 C13         1.6369   -0.3761   -3.6000 C.3       1 <0>        -0.1384
     18 C14         2.5820    0.2603   -4.6212 C.3       1 <0>        -0.2146
     19 C15         1.7770    1.0068   -5.6535 C.2       1 <0>         0.4772
     20 O5          0.5602    1.0278   -5.5794 O.co2     1 <0>        -0.6310
     21 O6          2.3425    1.5896   -6.5629 O.co2     1 <0>        -0.7468
     22 O7          3.6680    1.3359   -2.5111 O.3       1 <0>        -0.5377
     23 C16         0.8250    1.7490   -2.5149 C.3       1 <0>        -0.0993
     24 C17         0.3246    3.1910   -2.4093 C.3       1 <0>        -0.1785
     25 C18        -0.4452    3.5480   -3.6546 C.2       1 <0>         0.4615
     26 O8         -0.5810    2.7254   -4.5443 O.co2     1 <0>        -0.6062
     27 O9         -0.9322    4.6595   -3.7726 O.co2     1 <0>        -0.7538
     28 H1         -0.3490   -1.3091   -0.3594 H         1 <0>         0.0531
     29 H2         -0.2661   -0.4741   -1.9294 H         1 <0>         0.0822
     30 H3         -0.1659    1.1430   -0.0506 H         1 <0>         0.0664
     31 H4          1.2730    0.3117    0.5864 H         1 <0>         0.0543
     32 H5          2.6849    3.2549   -1.1858 H         1 <0>         0.0814
     33 H6          1.1707    3.2461   -0.2455 H         1 <0>         0.0861
     34 H7          3.2791    3.1622    1.1768 H         1 <0>         0.0907
     35 H8          2.1623    1.7998    1.4494 H         1 <0>         0.0989
     36 H9          2.0824   -1.7877   -0.4879 H         1 <0>         0.0563
     37 H10         1.2219   -2.4595   -1.8941 H         1 <0>         0.0689
     38 H11         4.2404   -0.9930   -3.4421 H         1 <0>         0.0644
     39 H12         4.2642   -1.6967   -1.8073 H         1 <0>         0.0530
     40 H13         2.6609   -3.4376   -2.5226 H         1 <0>         0.0517
     41 H14         2.6035   -2.7251   -4.1527 H         1 <0>         0.0638
     42 H15         1.2072   -1.2854   -4.0200 H         1 <0>         0.0438
     43 H16         0.8383    0.3250   -3.3578 H         1 <0>         0.1418
     44 H17         3.2528    0.9530   -4.1130 H         1 <0>         0.0909
     45 H18         3.1666   -0.5190   -5.1101 H         1 <0>         0.0369
     46 H19         4.4726    0.8798   -2.7934 H         1 <0>         0.3850
     47 H20         1.4756    1.6529   -3.3842 H         1 <0>         0.1276
     48 H21        -0.0258    1.0760   -2.6216 H         1 <0>         0.0765
     49 H22        -0.3260    3.2870   -1.5400 H         1 <0>         0.0330
     50 H23         1.1753    3.8639   -2.3025 H         1 <0>         0.0449
@<TRIPOS>BOND
     1    1   11 1
     2    1    2 1
     3    1   28 1
     4    1   29 1
     5    2    3 1
     6    2   30 1
     7    2   31 1
     8    3    9 1
     9    3    4 1
    10    3   23 1
    11    4    5 1
    12    4   32 1
    13    4   33 1
    14    5    6 1
    15    5   34 1
    16    5   35 1
    17    6    7 2
    18    6    8 1
    19    8    9 1
    20    9   10 1
    21    9   22 1
    22   10   11 1
    23   10   12 1
    24   10   17 1
    25   11   36 1
    26   11   37 1
    27   12   13 1
    28   12   38 1
    29   12   39 1
    30   13   14 1
    31   13   40 1
    32   13   41 1
    33   14   15 2
    34   14   16 1
    35   17   18 1
    36   17   42 1
    37   17   43 1
    38   18   19 1
    39   18   44 1
    40   18   45 1
    41   19   20 2
    42   19   21 1
    43   22   46 1
    44   23   24 1
    45   23   47 1
    46   23   48 1
    47   24   25 1
    48   24   49 1
    49   24   50 1
    50   25   26 2
    51   25   27 1
@<TRIPOS>MOLECULE
ZINC02982519
   52    55     0     0     0
SMALL
USER_CHARGES
5-[3-[(E)-[1-(3-fluorophenyl)-2,4,6-trioxo-hexahydropyrimidin-5-ylidene]methyl]-2,5-dimethyl-pyrrol-1-yl]benzene-1,3-dicarboxylic acid
@<TRIPOS>ATOM
      1 C1          9.4834   -1.9065   -0.6497 C.3       1 <0>        -0.0862
      2 C2          8.8224   -0.5585   -0.5190 C.2       1 <0>         0.0173
      3 C3          7.4987   -0.3458   -0.4462 C.2       1 <0>        -0.1021
      4 C4          7.3175    1.1089   -0.3278 C.2       1 <0>        -0.2491
      5 C5          8.5939    1.6523   -0.3464 C.2       1 <0>         0.1350
      6 N1          9.4763    0.6414   -0.4558 N.pl3     1 <0>        -0.3562
      7 C6         10.8687    0.7969   -0.5035 C.ar      1 <0>         0.0385
      8 C7         11.5467    1.2995    0.5969 C.ar      1 <0>        -0.0677
      9 C8         12.9342    1.4512    0.5548 C.ar      1 <0>        -0.1271
     10 C9         13.6365    1.1065   -0.5987 C.ar      1 <0>        -0.0119
     11 C10        12.9510    0.6068   -1.7045 C.ar      1 <0>        -0.1269
     12 C11        11.5640    0.4533   -1.6532 C.ar      1 <0>        -0.0645
     13 C12        13.6909    0.2403   -2.9298 C.2       1 <0>         0.4968
     14 O1         13.0927   -0.1948   -3.8933 O.co2     1 <0>        -0.6398
     15 C13        13.6563    1.9815    1.7298 C.2       1 <0>         0.4974
     16 O2         13.0435    2.2817    2.7347 O.co2     1 <0>        -0.6409
     17 C14         8.9334    3.1178   -0.2564 C.3       1 <0>        -0.1041
     18 C15         6.0930    1.8105   -0.2228 C.2       1 <0>         0.2125
     19 C16         5.0301    1.4758   -1.0459 C.2       1 <0>        -0.3417
     20 C17         5.1924    0.5319   -2.1672 C.2       1 <0>         0.5573
     21 O3          6.2706    0.0193   -2.4014 O.2       1 <0>        -0.4504
     22 N2          4.1129    0.2525   -2.9264 N.am      1 <0>        -0.6641
     23 C18         2.9183    0.8066   -2.6767 C.2       1 <0>         0.7161
     24 O4          1.9846    0.5093   -3.3957 O.2       1 <0>        -0.5338
     25 N3          2.6996    1.6752   -1.6795 N.am      1 <0>        -0.5226
     26 C19         3.6869    2.0472   -0.8390 C.2       1 <0>         0.5739
     27 O5          3.4746    2.8328    0.0655 O.2       1 <0>        -0.4874
     28 C20         1.4142    2.2047   -1.5026 C.ar      1 <0>         0.1657
     29 C21         0.6841    1.8923   -0.3633 C.ar      1 <0>        -0.1027
     30 C22        -0.5827    2.4145   -0.1906 C.ar      1 <0>        -0.0812
     31 C23        -1.1254    3.2487   -1.1504 C.ar      1 <0>        -0.1447
     32 C24        -0.3988    3.5666   -2.2857 C.ar      1 <0>         0.1075
     33 C25         0.8686    3.0417   -2.4657 C.ar      1 <0>        -0.1278
     34 F1         -0.9294    4.3861   -3.2196 F         1 <0>        -0.1355
     35 H1          9.5986   -2.1539   -1.7050 H         1 <0>         0.0739
     36 H2         10.4638   -1.8781   -0.1741 H         1 <0>         0.0695
     37 H3          8.8660   -2.6625   -0.1646 H         1 <0>         0.0741
     38 H4          6.7209   -1.0947   -0.4693 H         1 <0>         0.1385
     39 H5         11.0014    1.5699    1.4891 H         1 <0>         0.1272
     40 H6         14.7092    1.2260   -0.6353 H         1 <0>         0.1478
     41 H7         11.0321    0.0661   -2.5097 H         1 <0>         0.1275
     42 H8          9.0619    3.3974    0.7892 H         1 <0>         0.0891
     43 H9          9.8580    3.3106   -0.8004 H         1 <0>         0.0814
     44 H10         8.1257    3.7053   -0.6930 H         1 <0>         0.0811
     45 H11         5.9871    2.6068    0.4990 H         1 <0>         0.1463
     46 H12         4.2025   -0.3663   -3.6680 H         1 <0>         0.4324
     47 H13         1.1067    1.2408    0.3873 H         1 <0>         0.1350
     48 H14        -1.1501    2.1713    0.6956 H         1 <0>         0.1421
     49 H15        -2.1161    3.6561   -1.0127 H         1 <0>         0.1402
     50 H16         1.4344    3.2866   -3.3525 H         1 <0>         0.1396
     51 O6         15.0289    0.3887   -2.9784 O.co2     1 <0>        -0.7479
     52 O7         14.9943    2.1319    1.6866 O.co2     1 <0>        -0.7474
@<TRIPOS>BOND
     1    1    2 1
     2    1   35 1
     3    1   36 1
     4    1   37 1
     5    2    6 1
     6    2    3 2
     7    3    4 1
     8    3   38 1
     9    4    5 2
    10    4   18 1
    11    5    6 1
    12    5   17 1
    13    6    7 1
    14    7   12 ar
    15    7    8 ar
    16    8    9 ar
    17    8   39 1
    18    9   10 ar
    19    9   15 1
    20   10   11 ar
    21   10   40 1
    22   11   12 ar
    23   11   13 1
    24   12   41 1
    25   13   14 2
    26   13   51 1
    27   15   16 2
    28   15   52 1
    29   17   42 1
    30   17   43 1
    31   17   44 1
    32   18   19 2
    33   18   45 1
    34   19   26 1
    35   19   20 1
    36   20   21 2
    37   20   22 am
    38   22   23 am
    39   22   46 1
    40   23   24 2
    41   23   25 am
    42   25   26 am
    43   25   28 1
    44   26   27 2
    45   28   33 ar
    46   28   29 ar
    47   29   30 ar
    48   29   47 1
    49   30   31 ar
    50   30   48 1
    51   31   32 ar
    52   31   49 1
    53   32   33 ar
    54   32   34 1
    55   33   50 1
@<TRIPOS>MOLECULE
ZINC19800175
   51    54     0     0     0
SMALL
USER_CHARGES
5-[3-[(E)-(4,6-dioxo-1-phenyl-2-thioxo-hexahydropyrimidin-5-ylidene)methyl]-2,5-dimethyl-pyrrol-1-yl]benzene-1,3-dicarboxylic acid
@<TRIPOS>ATOM
      1 C1         -5.1208    6.1523   -0.0643 C.3       1 <0>        -0.0809
      2 C2         -4.6246    4.7634   -0.3738 C.2       1 <0>         0.0026
      3 C3         -3.3571    4.3424   -0.2369 C.2       1 <0>        -0.0887
      4 C4         -3.3406    2.9317   -0.6525 C.2       1 <0>        -0.2113
      5 C5         -4.6440    2.6293   -1.0182 C.2       1 <0>         0.1011
      6 N1         -5.3945    3.7327   -0.8391 N.pl3     1 <0>        -0.3681
      7 C6         -6.7696    3.8155   -1.0986 C.ar      1 <0>         0.0574
      8 C7         -7.6612    3.0606   -0.3514 C.ar      1 <0>        -0.0693
      9 C8         -9.0322    3.1447   -0.6033 C.ar      1 <0>        -0.1299
     10 C9         -9.5031    3.9801   -1.6146 C.ar      1 <0>        -0.0187
     11 C10        -8.6036    4.7330   -2.3672 C.ar      1 <0>        -0.1317
     12 C11        -7.2345    4.6479   -2.1057 C.ar      1 <0>        -0.0685
     13 C12        -9.0979    5.6197   -3.4408 C.2       1 <0>         0.5001
     14 O1         -8.3132    6.2753   -4.0965 O.co2     1 <0>        -0.6425
     15 O2        -10.4188    5.7012   -3.6923 O.co2     1 <0>        -0.7542
     16 C13        -9.9818    2.3445    0.1974 C.2       1 <0>         0.4986
     17 O3         -9.5705    1.6166    1.0786 O.co2     1 <0>        -0.6388
     18 O4        -11.3037    2.4221   -0.0499 O.co2     1 <0>        -0.7551
     19 C14        -5.1352    1.2973   -1.5237 C.3       1 <0>        -0.0984
     20 C15        -2.2233    2.0631   -0.6796 C.2       1 <0>         0.1479
     21 C16        -1.3368    2.0418    0.3843 C.2       1 <0>        -0.3335
     22 C17        -1.6309    2.7469    1.6459 C.2       1 <0>         0.5256
     23 O5         -2.6667    3.3693    1.7871 O.3       1 <0>        -0.4816
     24 N2         -0.7181    2.6868    2.6372 N.2       1 <0>        -0.6241
     25 C18         0.4268    2.0044    2.4952 C.2       1 <0>         0.5493
     26 S1          1.5261    1.9840    3.8075 S.2       1 <0>        -0.7338
     27 N3          0.7568    1.3368    1.3808 N.am      1 <0>        -0.5163
     28 C19        -0.0600    1.3084    0.3076 C.2       1 <0>         0.5658
     29 O6          0.2508    0.6983   -0.6982 O.2       1 <0>        -0.5268
     30 C20         1.9781    0.6523    1.3295 C.ar      1 <0>         0.1775
     31 C21         3.1048    1.2774    0.8122 C.ar      1 <0>        -0.0941
     32 C22         4.3086    0.6017    0.7679 C.ar      1 <0>        -0.1153
     33 C23         4.3899   -0.6997    1.2280 C.ar      1 <0>        -0.1275
     34 C24         3.2684   -1.3268    1.7390 C.ar      1 <0>        -0.1150
     35 C25         2.0630   -0.6546    1.7908 C.ar      1 <0>        -0.0895
     36 H1         -4.2833    6.7698    0.2924 H         1 <0>         0.0738
     37 H2         -5.8955    6.0997    0.7149 H         1 <0>         0.0648
     38 H3         -5.5458    6.6011   -0.9742 H         1 <0>         0.0662
     39 H4         -2.5161    4.9243    0.1100 H         1 <0>         0.1348
     40 H5         -7.2951    2.4098    0.4289 H         1 <0>         0.1272
     41 H6        -10.5626    4.0441   -1.8143 H         1 <0>         0.1443
     42 H7         -6.5369    5.2313   -2.6883 H         1 <0>         0.1261
     43 H8         -6.2135    1.3592   -1.7320 H         1 <0>         0.0767
     44 H9         -4.9528    0.5258   -0.7611 H         1 <0>         0.0794
     45 H10        -4.5978    1.0347   -2.4469 H         1 <0>         0.0782
     46 H11        -2.0591    1.4050   -1.5456 H         1 <0>         0.1289
     47 H12         3.0409    2.2923    0.4485 H         1 <0>         0.1166
     48 H13         5.1863    1.0888    0.3693 H         1 <0>         0.1186
     49 H14         5.3313   -1.2277    1.1879 H         1 <0>         0.1154
     50 H15         3.3350   -2.3434    2.0976 H         1 <0>         0.1191
     51 H16         1.1872   -1.1452    2.1893 H         1 <0>         0.1177
@<TRIPOS>BOND
     1    1    2 1
     2    1   36 1
     3    1   37 1
     4    1   38 1
     5    2    6 1
     6    2    3 2
     7    3    4 1
     8    3   39 1
     9    4    5 2
    10    4   20 1
    11    5    6 1
    12    5   19 1
    13    6    7 1
    14    7   12 ar
    15    7    8 ar
    16    8    9 ar
    17    8   40 1
    18    9   10 ar
    19    9   16 1
    20   10   11 ar
    21   10   41 1
    22   11   12 ar
    23   11   13 1
    24   12   42 1
    25   13   14 2
    26   13   15 1
    27   16   17 2
    28   16   18 1
    29   19   43 1
    30   19   44 1
    31   19   45 1
    32   20   21 2
    33   20   46 1
    34   21   28 1
    35   21   22 1
    36   22   23 1
    37   22   24 2
    38   24   25 1
    39   25   26 2
    40   25   27 1
    41   27   28 am
    42   27   30 1
    43   28   29 2
    44   30   35 ar
    45   30   31 ar
    46   31   32 ar
    47   31   47 1
    48   32   33 ar
    49   32   48 1
    50   33   34 ar
    51   33   49 1
    52   34   35 ar
    53   34   50 1
    54   35   51 1
@<TRIPOS>MOLECULE
ZINC20268856
   49    51     0     0     0
SMALL
USER_CHARGES

@<TRIPOS>ATOM
      1 C1          2.4907   -6.4441    0.7986 C.2       1 <0>        -0.1821
      2 C2          1.6465   -5.4576    0.6249 C.2       1 <0>        -0.1466
      3 C3          0.5886   -5.1798    1.6617 C.3       1 <0>         0.1254
      4 N1          0.6861   -3.7844    2.0971 N.am      1 <0>        -0.4959
      5 C4          1.4801   -3.4623    3.1375 C.2       1 <0>         0.5305
      6 C5          1.5707   -2.1212    3.5514 C.2       1 <0>        -0.3732
      7 C6          0.8498   -1.1730    2.8878 C.2       1 <0>         0.4643
      8 O1          0.9190    0.1214    3.2644 O.3       1 <0>        -0.6366
      9 N2          0.0541   -1.5446    1.8342 N.pl3     1 <0>        -0.5851
     10 H1         -0.4605   -0.8736    1.3591 H         1 <0>         0.4224
     11 C7         -0.0134   -2.8331    1.4520 C.2       1 <0>         0.5581
     12 S1         -1.0092   -3.2693    0.1296 S.2       1 <0>        -0.7009
     13 C8          2.4516   -1.7377    4.7124 C.3       1 <0>         0.1729
     14 H2          2.5811   -2.5974    5.3698 H         1 <0>         0.0592
     15 C9          3.7960   -1.2923    4.1972 C.ar      1 <0>         0.0227
     16 C10         3.8723   -0.3322    3.2054 C.ar      1 <0>        -0.0561
     17 C11         5.1050    0.0767    2.7325 C.ar      1 <0>        -0.1237
     18 C12         6.2626   -0.4750    3.2519 C.ar      1 <0>        -0.0545
     19 C13         6.1855   -1.4358    4.2444 C.ar      1 <0>        -0.1190
     20 C14         4.9524   -1.8398    4.7205 C.ar      1 <0>        -0.1182
     21 Cl1         7.8112    0.0377    2.6580 Cl        1 <0>        -0.1205
     22 C15         1.8092   -0.6109    5.4796 C.2       1 <0>        -0.3600
     23 C16         0.5233   -0.7191    5.9198 C.2       1 <0>         0.4627
     24 N3         -0.0413    0.3186    6.6166 N.pl3     1 <0>        -0.5820
     25 C17         0.6649    1.4365    6.8661 C.2       1 <0>         0.5590
     26 S2         -0.0633    2.7169    7.7386 S.2       1 <0>        -0.7116
     27 N4          1.9351    1.5628    6.4403 N.am      1 <0>        -0.4916
     28 C18         2.5296    0.5648    5.7568 C.2       1 <0>         0.5308
     29 O2          3.6819    0.6824    5.3773 O.2       1 <0>        -0.5475
     30 C19         2.6792    2.7918    6.7268 C.3       1 <0>         0.1275
     31 C20         3.3988    2.6480    8.0431 C.2       1 <0>        -0.1453
     32 C21         4.6929    2.8413    8.1066 C.2       1 <0>        -0.1821
     33 O3         -0.1888   -1.8387    5.6713 O.3       1 <0>        -0.6544
     34 O4          2.1150   -4.3272    3.7158 O.2       1 <0>        -0.5680
     35 H3          2.4286   -7.0584    1.6847 H         1 <0>         0.0971
     36 H4          3.2460   -6.6459    0.0535 H         1 <0>         0.0945
     37 H5          1.7086   -4.8433   -0.2612 H         1 <0>         0.1122
     38 H6         -0.3970   -5.3582    1.2318 H         1 <0>         0.1181
     39 H7          0.7366   -5.8386    2.5173 H         1 <0>         0.0961
     40 H8          2.9686    0.0981    2.7998 H         1 <0>         0.1384
     41 H9          5.1645    0.8264    1.9575 H         1 <0>         0.1079
     42 H10         7.0888   -1.8670    4.6500 H         1 <0>         0.1098
     43 H11         4.8923   -2.5863    5.4986 H         1 <0>         0.1129
     44 H12         3.4050    2.9704    5.9335 H         1 <0>         0.0956
     45 H13         1.9864    3.6316    6.7813 H         1 <0>         0.1156
     46 H14         2.8476    2.3857    8.9340 H         1 <0>         0.1105
     47 H15         5.2441    3.1037    7.2156 H         1 <0>         0.0971
     48 H16         5.2087    2.7383    9.0499 H         1 <0>         0.0928
     49 H17        -0.9559    0.2463    6.9315 H         1 <0>         0.4208
@<TRIPOS>BOND
     1    1    2 2
     2    1   35 1
     3    1   36 1
     4    2    3 1
     5    2   37 1
     6    3    4 1
     7    3   38 1
     8    3   39 1
     9    4   11 1
    10    4    5 am
    11    5    6 1
    12    5   34 2
    13    6    7 2
    14    6   13 1
    15    7    8 1
    16    7    9 1
    17    9   10 1
    18    9   11 1
    19   11   12 2
    20   13   14 1
    21   13   15 1
    22   13   22 1
    23   15   20 ar
    24   15   16 ar
    25   16   17 ar
    26   16   40 1
    27   17   18 ar
    28   17   41 1
    29   18   19 ar
    30   18   21 1
    31   19   20 ar
    32   19   42 1
    33   20   43 1
    34   22   28 1
    35   22   23 2
    36   23   33 1
    37   23   24 1
    38   24   25 1
    39   24   49 1
    40   25   26 2
    41   25   27 1
    42   27   28 am
    43   27   30 1
    44   28   29 2
    45   30   31 1
    46   30   44 1
    47   30   45 1
    48   31   32 2
    49   31   46 1
    50   32   47 1
    51   32   48 1
@<TRIPOS>MOLECULE
ZINC13214428
   52    55     0     0     0
SMALL
USER_CHARGES

@<TRIPOS>ATOM
      1 C1         -6.3250   -2.9069   -2.3981 C.3       1 <0>        -0.1111
      2 C2         -4.9096   -3.1239   -1.9285 C.ar      1 <0>        -0.0739
      3 C3         -3.9468   -3.5611   -2.8216 C.ar      1 <0>        -0.1431
      4 C4         -2.6497   -3.7618   -2.3985 C.ar      1 <0>        -0.0556
      5 C5         -2.3084   -3.5223   -1.0655 C.ar      1 <0>        -0.1453
      6 C6         -3.2845   -3.0809   -0.1700 C.ar      1 <0>        -0.0363
      7 C7         -4.5771   -2.8797   -0.6077 C.ar      1 <0>        -0.1433
      8 C8         -2.9257   -2.8205    1.2703 C.3       1 <0>        -0.1148
      9 C9         -0.9197   -3.7357   -0.6046 C.2       1 <0>         0.5094
     10 O1         -0.5970   -3.4143    0.5237 O.2       1 <0>        -0.4709
     11 C10         0.0679   -4.3344   -1.5067 C.2       1 <0>        -0.5026
     12 C11         0.6447   -5.5530   -1.3788 C.2       1 <0>         0.2719
     13 C12         1.5814   -5.7666   -2.5013 C.2       1 <0>         0.5166
     14 O2          2.2526   -6.7657   -2.6688 O.2       1 <0>        -0.5189
     15 N1          1.5813   -4.6920   -3.3107 N.am      1 <0>        -0.5666
     16 C13         0.6343   -3.7139   -2.7625 C.3       1 <0>         0.2594
     17 H1         -0.1647   -3.5204   -3.4782 H         1 <0>         0.0771
     18 C14         1.3533   -2.4323   -2.4284 C.ar      1 <0>        -0.0408
     19 C15         0.9184   -1.2368   -2.9724 C.ar      1 <0>        -0.1119
     20 C16         1.5719   -0.0600   -2.6708 C.ar      1 <0>        -0.0749
     21 C17         2.6743   -0.0771   -1.8141 C.ar      1 <0>        -0.0499
     22 C18         3.1076   -1.2871   -1.2683 C.ar      1 <0>        -0.0736
     23 C19         2.4418   -2.4558   -1.5745 C.ar      1 <0>        -0.0695
     24 C20         3.3578    1.1407   -1.4970 C.1       1 <0>         0.2744
     25 N2          3.9000    2.1067   -1.2455 N.1       1 <0>        -0.4484
     26 C21         2.3440   -4.5369   -4.4725 C.ar      1 <0>         0.1528
     27 C22         1.7446   -4.6575   -5.7160 C.ar      1 <0>        -0.0682
     28 C23         2.5108   -4.5018   -6.8731 C.ar      1 <0>        -0.1237
     29 C24         3.8772   -4.2253   -6.7691 C.ar      1 <0>        -0.0762
     30 C25         4.4643   -4.1077   -5.5268 C.ar      1 <0>        -0.1252
     31 C26         3.7038   -4.2559   -4.3799 C.ar      1 <0>        -0.0297
     32 Cl1         4.4504   -4.0983   -2.8206 Cl        1 <0>        -0.0747
     33 C27         1.8807   -4.6290   -8.2004 C.2       1 <0>         0.5252
     34 O3          0.6852   -4.8713   -8.2891 O.co2     1 <0>        -0.6828
     35 O4          2.5536   -4.4923   -9.2125 O.co2     1 <0>        -0.6892
     36 O5          0.4021   -6.4343   -0.3816 O.3       1 <0>        -0.6569
     37 H2         -6.4382   -1.8810   -2.7487 H         1 <0>         0.0669
     38 H3         -6.5471   -3.5959   -3.2129 H         1 <0>         0.0650
     39 H4         -7.0134   -3.0866   -1.5724 H         1 <0>         0.0611
     40 H5         -4.2121   -3.7459   -3.8521 H         1 <0>         0.1226
     41 H6         -1.8995   -4.1036   -3.0963 H         1 <0>         0.1362
     42 H7         -5.3323   -2.5344    0.0830 H         1 <0>         0.1165
     43 H8         -2.4634   -1.8372    1.3575 H         1 <0>         0.0700
     44 H9         -3.8279   -2.8532    1.8812 H         1 <0>         0.0476
     45 H10        -2.2263   -3.5826    1.6141 H         1 <0>         0.0926
     46 H11         0.0655   -1.2250   -3.6349 H         1 <0>         0.1317
     47 H12         1.2318    0.8725   -3.0967 H         1 <0>         0.1263
     48 H13         3.9596   -1.3074   -0.6049 H         1 <0>         0.1236
     49 H14         2.7733   -3.3919   -1.1499 H         1 <0>         0.1315
     50 H15         0.6886   -4.8715   -5.7901 H         1 <0>         0.1383
     51 H16         4.4732   -4.1042   -7.6616 H         1 <0>         0.1350
     52 H17         5.5201   -3.8944   -5.4486 H         1 <0>         0.1265
@<TRIPOS>BOND
     1    1    2 1
     2    1   37 1
     3    1   38 1
     4    1   39 1
     5    2    7 ar
     6    2    3 ar
     7    3    4 ar
     8    3   40 1
     9    4    5 ar
    10    4   41 1
    11    5    6 ar
    12    5    9 1
    13    6    7 ar
    14    6    8 1
    15    7   42 1
    16    8   43 1
    17    8   44 1
    18    8   45 1
    19    9   10 2
    20    9   11 1
    21   11   16 1
    22   11   12 2
    23   12   13 1
    24   12   36 1
    25   13   14 2
    26   13   15 am
    27   15   16 1
    28   15   26 1
    29   16   17 1
    30   16   18 1
    31   18   23 ar
    32   18   19 ar
    33   19   20 ar
    34   19   46 1
    35   20   21 ar
    36   20   47 1
    37   21   22 ar
    38   21   24 1
    39   22   23 ar
    40   22   48 1
    41   23   49 1
    42   24   25 3
    43   26   31 ar
    44   26   27 ar
    45   27   28 ar
    46   27   50 1
    47   28   29 ar
    48   28   33 1
    49   29   30 ar
    50   29   51 1
    51   30   31 ar
    52   30   52 1
    53   31   32 1
    54   33   34 2
    55   33   35 1
@<TRIPOS>MOLECULE
ZINC13216263
   45    48     0     0     0
SMALL
USER_CHARGES

@<TRIPOS>ATOM
      1 C1         -1.6202    0.7831    0.0490 C.3       1 <0>        -0.1039
      2 C2         -1.5133   -0.7164    0.1548 C.ar      1 <0>        -0.0877
      3 C3         -1.9081   -1.5115   -0.9052 C.ar      1 <0>        -0.1376
      4 C4         -1.8136   -2.8849   -0.8165 C.ar      1 <0>        -0.0821
      5 C5         -1.3172   -3.4773    0.3480 C.ar      1 <0>        -0.1362
      6 C6         -0.9186   -2.6743    1.4180 C.ar      1 <0>        -0.0676
      7 C7         -1.0128   -1.2947    1.3157 C.ar      1 <0>         0.1345
      8 N1         -0.6093   -0.4856    2.3818 N.am      1 <0>        -0.5648
      9 C8         -1.4556   -0.0366    3.4936 C.3       1 <0>         0.3070
     10 H1         -2.2857    0.5602    3.1155 H         1 <0>         0.0806
     11 C9         -0.5714    0.8071    4.3818 C.2       1 <0>        -0.5078
     12 C10         0.6559    0.8223    3.8099 C.2       1 <0>         0.2792
     13 C11         0.6249    0.0144    2.5732 C.2       1 <0>         0.5136
     14 O1          1.5738   -0.1696    1.8367 O.2       1 <0>        -0.5204
     15 O2          1.7393    1.4704    4.2959 O.3       1 <0>        -0.6483
     16 C12        -0.9659    1.4798    5.6228 C.2       1 <0>         0.4993
     17 O3         -0.4596    1.1525    6.6797 O.2       1 <0>        -0.4426
     18 C13        -1.9788    2.5556    5.5904 C.ar      1 <0>        -0.1112
     19 C14        -2.4780    3.0128    4.3685 C.ar      1 <0>        -0.0449
     20 C15        -3.4234    4.0175    4.3456 C.ar      1 <0>        -0.0475
     21 C16        -3.8775    4.5733    5.5309 C.ar      1 <0>        -0.0893
     22 C17        -3.3876    4.1261    6.7442 C.ar      1 <0>        -0.1185
     23 C18        -2.4458    3.1164    6.7825 C.ar      1 <0>         0.0037
     24 Cl1        -1.8381    2.5505    8.3070 Cl        1 <0>        -0.0357
     25 Cl2        -4.0451    4.5871    2.8281 Cl        1 <0>        -0.0689
     26 C19        -1.9787   -1.2246    4.2592 C.2       1 <0>        -0.1196
     27 C20        -3.2414   -1.4798    4.6807 C.2       1 <0>        -0.1758
     28 C21        -3.4932   -2.6486    5.3743 C.2       1 <0>        -0.1556
     29 C22        -2.4700   -3.5051    5.6125 C.2       1 <0>        -0.1984
     30 S1         -1.0976   -2.6648    4.8395 S.3       1 <0>         0.0883
     31 C23        -1.2152   -4.9460    0.4462 C.2       1 <0>         0.5244
     32 O4         -1.5654   -5.6474   -0.4924 O.co2     1 <0>        -0.6963
     33 O5         -0.7805   -5.4620    1.4662 O.co2     1 <0>        -0.6821
     34 H2         -0.6959    1.1848   -0.3661 H         1 <0>         0.0644
     35 H3         -2.4543    1.0428   -0.6028 H         1 <0>         0.0589
     36 H4         -1.7877    1.2062    1.0395 H         1 <0>         0.0631
     37 H5         -2.2924   -1.0557   -1.8057 H         1 <0>         0.1150
     38 H6         -2.1234   -3.5023   -1.6467 H         1 <0>         0.1245
     39 H7         -0.5344   -3.1258    2.3208 H         1 <0>         0.1338
     40 H8         -2.1245    2.5810    3.4438 H         1 <0>         0.1539
     41 H9         -4.6174    5.3597    5.5070 H         1 <0>         0.1385
     42 H10        -3.7456    4.5640    7.6643 H         1 <0>         0.1402
     43 H11        -4.0388   -0.7802    4.4780 H         1 <0>         0.1225
     44 H12        -4.4903   -2.8758    5.7217 H         1 <0>         0.1209
     45 H13        -2.4825   -4.4521    6.1316 H         1 <0>         0.1763
@<TRIPOS>BOND
     1    1    2 1
     2    1   34 1
     3    1   35 1
     4    1   36 1
     5    2    7 ar
     6    2    3 ar
     7    3    4 ar
     8    3   37 1
     9    4    5 ar
    10    4   38 1
    11    5    6 ar
    12    5   31 1
    13    6    7 ar
    14    6   39 1
    15    7    8 1
    16    8   13 am
    17    8    9 1
    18    9   10 1
    19    9   11 1
    20    9   26 1
    21   11   12 2
    22   11   16 1
    23   12   13 1
    24   12   15 1
    25   13   14 2
    26   16   17 2
    27   16   18 1
    28   18   23 ar
    29   18   19 ar
    30   19   20 ar
    31   19   40 1
    32   20   21 ar
    33   20   25 1
    34   21   22 ar
    35   21   41 1
    36   22   23 ar
    37   22   42 1
    38   23   24 1
    39   26   30 1
    40   26   27 2
    41   27   28 1
    42   27   43 1
    43   28   29 2
    44   28   44 1
    45   29   30 1
    46   29   45 1
    47   31   32 2
    48   31   33 1
@<TRIPOS>MOLECULE
ZINC13350049
   58    60     0     0     0
SMALL
USER_CHARGES
(E)-3-[3-[[4-(2,5-dimethylphenyl)sulfanylphenyl]sulfamoyl]-4,5-dimethoxy-phenyl]prop-2-enoic acid
@<TRIPOS>ATOM
      1 C1          5.2768    0.1718   -6.5896 C.3       1 <0>        -0.1149
      2 C2          6.5784   -0.0807   -5.8732 C.ar      1 <0>        -0.0750
      3 C3          7.7759    0.2630   -6.4744 C.ar      1 <0>        -0.1233
      4 C4          8.9726    0.0327   -5.8209 C.ar      1 <0>        -0.1024
      5 C5          8.9761   -0.5417   -4.5650 C.ar      1 <0>        -0.0725
      6 C6          7.7752   -0.8883   -3.9580 C.ar      1 <0>        -0.0956
      7 C7          6.5744   -0.6601   -4.6201 C.ar      1 <0>        -0.1201
      8 S1          7.7748   -1.6219   -2.3560 S.3       1 <0>         0.0038
      9 C8          6.0822   -2.0191   -2.0695 C.ar      1 <0>        -0.1614
     10 C9          5.5596   -3.2158   -2.5435 C.ar      1 <0>        -0.0412
     11 C10         4.2335   -3.5271   -2.3185 C.ar      1 <0>        -0.1414
     12 C11         3.4221   -2.6441   -1.6180 C.ar      1 <0>         0.1959
     13 C12         3.9430   -1.4453   -1.1486 C.ar      1 <0>        -0.1690
     14 C13         5.2702   -1.1358   -1.3692 C.ar      1 <0>        -0.0288
     15 N1          2.0776   -2.9599   -1.3900 N.pl3     1 <0>        -1.0510
     16 S2          1.4219   -2.7509    0.1162 S.o2      1 <0>         2.7005
     17 O1          2.3383   -3.3208    1.0408 O.2       1 <0>        -0.9378
     18 O2          0.0666   -3.1692    0.0308 O.2       1 <0>        -0.9429
     19 C14         1.3950   -1.0185    0.4369 C.ar      1 <0>        -0.6626
     20 C15         2.1456   -0.4990    1.4688 C.ar      1 <0>        -0.0432
     21 C16         2.1252    0.8766    1.7247 C.ar      1 <0>        -0.0102
     22 C17         1.3406    1.7209    0.9295 C.ar      1 <0>        -0.1452
     23 C18         0.5913    1.1916   -0.1021 C.ar      1 <0>         0.0997
     24 C19         0.6171   -0.1807   -0.3507 C.ar      1 <0>         0.1480
     25 O3         -0.1208   -0.6987   -1.3665 O.3       1 <0>        -0.3313
     26 C20        -1.4945   -0.9810   -1.0921 C.3       1 <0>         0.0290
     27 O4         -0.1726    2.0084   -0.8759 O.3       1 <0>        -0.3060
     28 C21        -0.0674    3.4134   -0.6369 C.3       1 <0>         0.0195
     29 C22         2.9201    1.4328    2.8285 C.2       1 <0>        -0.1248
     30 C23         2.8990    2.7612    3.0737 C.2       1 <0>        -0.1230
     31 C24         3.6659    3.2977    4.1386 C.2       1 <0>         0.4670
     32 O5          4.3429    2.5620    4.8315 O.co2     1 <0>        -0.6294
     33 C25        10.2809   -0.7927   -3.8539 C.3       1 <0>        -0.1167
     34 H1          4.9717   -0.7315   -7.1179 H         1 <0>         0.0698
     35 H2          4.5102    0.4453   -5.8647 H         1 <0>         0.0668
     36 H3          5.4073    0.9843   -7.3045 H         1 <0>         0.0666
     37 H4          7.7761    0.7120   -7.4566 H         1 <0>         0.1219
     38 H5          9.9057    0.3020   -6.2934 H         1 <0>         0.1256
     39 H6          5.6394   -0.9323   -4.1532 H         1 <0>         0.1235
     40 H7          6.1906   -3.9025   -3.0883 H         1 <0>         0.1376
     41 H8          3.8272   -4.4574   -2.6870 H         1 <0>         0.1372
     42 H9          3.3106   -0.7568   -0.6077 H         1 <0>         0.1407
     43 H10         5.6763   -0.2054   -1.0006 H         1 <0>         0.1419
     44 H11         1.5300   -3.3011   -2.1142 H         1 <0>         0.4300
     45 H12         2.7499   -1.1532    2.0799 H         1 <0>         0.1560
     46 H13         1.3212    2.7832    1.1231 H         1 <0>         0.1488
     47 H14        -1.5645   -1.6340   -0.2222 H         1 <0>         0.0691
     48 H15        -2.0236   -0.0495   -0.8908 H         1 <0>         0.0493
     49 H16        -1.9432   -1.4747   -1.9541 H         1 <0>         0.0967
     50 H17        -0.7870    3.9430   -1.2613 H         1 <0>         0.1037
     51 H18        -0.2758    3.6200    0.4129 H         1 <0>         0.0604
     52 H19         0.9408    3.7488   -0.8800 H         1 <0>         0.0604
     53 H20         3.5212    0.7796    3.4436 H         1 <0>         0.1397
     54 H21         2.2979    3.4144    2.4585 H         1 <0>         0.1045
     55 H22        10.6488   -1.7863   -4.1097 H         1 <0>         0.0745
     56 H23        11.0117   -0.0445   -4.1608 H         1 <0>         0.0702
     57 H24        10.1258   -0.7288   -2.7769 H         1 <0>         0.0716
     58 O6          3.6447    4.6245    4.3835 O.co2     1 <0>        -0.7604
@<TRIPOS>BOND
     1    1    2 1
     2    1   34 1
     3    1   35 1
     4    1   36 1
     5    2    7 ar
     6    2    3 ar
     7    3    4 ar
     8    3   37 1
     9    4    5 ar
    10    4   38 1
    11    5    6 ar
    12    5   33 1
    13    6    7 ar
    14    6    8 1
    15    7   39 1
    16    8    9 1
    17    9   14 ar
    18    9   10 ar
    19   10   11 ar
    20   10   40 1
    21   11   12 ar
    22   11   41 1
    23   12   13 ar
    24   12   15 1
    25   13   14 ar
    26   13   42 1
    27   14   43 1
    28   15   16 1
    29   15   44 1
    30   16   17 2
    31   16   18 2
    32   16   19 1
    33   19   24 ar
    34   19   20 ar
    35   20   21 ar
    36   20   45 1
    37   21   22 ar
    38   21   29 1
    39   22   23 ar
    40   22   46 1
    41   23   24 ar
    42   23   27 1
    43   24   25 1
    44   25   26 1
    45   26   47 1
    46   26   48 1
    47   26   49 1
    48   27   28 1
    49   28   50 1
    50   28   51 1
    51   28   52 1
    52   29   30 2
    53   29   53 1
    54   30   31 1
    55   30   54 1
    56   31   32 2
    57   31   58 1
    58   33   55 1
    59   33   56 1
    60   33   57 1
@<TRIPOS>MOLECULE
ZINC16805433
   60    63     0     0     0
SMALL
USER_CHARGES
ethyl 2-[(2S,3E)-2-(4-ethylphenyl)-3-[(3-fluoro-4-methyl-phenyl)-hydroxy-methylene]-4,5-dioxo-pyrrolidin-1-yl]-4-methyl-thiazole-5-carboxylate
@<TRIPOS>ATOM
      1 C1         -1.3979   -1.0906   -4.9584 C.3       1 <0>        -0.1464
      2 C2         -0.4331   -2.2779   -4.9366 C.3       1 <0>        -0.0830
      3 C3          0.1820   -2.4002   -3.5663 C.ar      1 <0>        -0.0850
      4 C4         -0.4304   -3.1770   -2.6006 C.ar      1 <0>        -0.1182
      5 C5          0.1344   -3.2899   -1.3440 C.ar      1 <0>        -0.0707
      6 C6          1.3117   -2.6264   -1.0531 C.ar      1 <0>        -0.0872
      7 C7          1.9213   -1.8454   -2.0172 C.ar      1 <0>        -0.1017
      8 C8          1.3588   -1.7360   -3.2752 C.ar      1 <0>        -0.1211
      9 C9          1.9274   -2.7496    0.3168 C.3       1 <0>         0.2649
     10 H1          1.1442   -3.0582    1.0249 H         1 <0>         0.0901
     11 C10         3.0766   -3.7303    0.2815 C.2       1 <0>        -0.4887
     12 C11         3.0162   -5.0661   -0.0566 C.2       1 <0>         0.4069
     13 C12         4.2570   -5.8507   -0.1844 C.ar      1 <0>        -0.0534
     14 C13         5.3052   -5.3824   -0.9835 C.ar      1 <0>        -0.0586
     15 C14         6.4658   -6.1183   -1.0945 C.ar      1 <0>        -0.1029
     16 C15         6.5921   -7.3240   -0.4268 C.ar      1 <0>        -0.1194
     17 C16         5.5563   -7.7985    0.3628 C.ar      1 <0>         0.0787
     18 C17         4.3900   -7.0692    0.4878 C.ar      1 <0>        -0.1156
     19 F1          5.6880   -8.9762    1.0115 F         1 <0>        -0.1459
     20 C18         7.8617   -8.1250   -0.5592 C.3       1 <0>        -0.1135
     21 O1          1.8203   -5.6550   -0.2702 O.2       1 <0>        -0.6140
     22 C19         4.2190   -3.0066    0.6626 C.2       1 <0>         0.3812
     23 O2          5.3478   -3.4526    0.7594 O.3       1 <0>        -0.4783
     24 C20         3.8101   -1.6012    0.9273 C.2       1 <0>         0.4767
     25 O3          4.5607   -0.7117    1.2726 O.2       1 <0>        -0.4548
     26 N1          2.4882   -1.4608    0.7327 N.am      1 <0>        -0.4974
     27 C21         1.7736   -0.2885    0.8926 C.2       1 <0>         0.3676
     28 N2          2.2118    0.9050    1.2629 N.2       1 <0>        -0.5505
     29 C22         1.4057    1.9279    1.3692 C.2       1 <0>         0.2140
     30 C23         0.0623    1.7257    1.0798 C.2       1 <0>        -0.3273
     31 S1          0.0757   -0.0108    0.6572 S.3       1 <0>         0.1504
     32 C24        -1.0515    2.6717    1.1069 C.2       1 <0>         0.5735
     33 O4         -0.8584    3.8299    1.4253 O.2       1 <0>        -0.5049
     34 O5         -2.2940    2.2604    0.7787 O.3       1 <0>        -0.3478
     35 C25        -3.3350    3.2383    0.8269 C.3       1 <0>         0.0611
     36 C26        -4.6619    2.5909    0.4256 C.3       1 <0>        -0.1543
     37 C27         1.9163    3.2815    1.7912 C.3       1 <0>        -0.1081
     38 H2         -1.8469   -1.0013   -5.9587 H         1 <0>         0.0534
     39 H3         -0.8491   -0.1678   -4.7192 H         1 <0>         0.0546
     40 H4         -2.1913   -1.2491   -4.2132 H         1 <0>         0.0564
     41 H5         -0.9819   -3.2007   -5.1759 H         1 <0>         0.0695
     42 H6          0.3603   -2.1194   -5.6819 H         1 <0>         0.0677
     43 H7         -1.3499   -3.6959   -2.8281 H         1 <0>         0.1181
     44 H8         -0.3441   -3.8967   -0.5895 H         1 <0>         0.1264
     45 H9          2.8387   -1.3235   -1.7886 H         1 <0>         0.1080
     46 H10         1.8375   -1.1293   -4.0297 H         1 <0>         0.1146
     47 H11         5.2071   -4.4442   -1.5094 H         1 <0>         0.1249
     48 H12         7.2769   -5.7551   -1.7081 H         1 <0>         0.1275
     49 H13         3.5833   -7.4390    1.1033 H         1 <0>         0.1340
     50 H14         7.7785   -9.0453    0.0376 H         1 <0>         0.0662
     51 H15         8.7114   -7.5281   -0.1962 H         1 <0>         0.0710
     52 H16         8.0219   -8.3863   -1.6156 H         1 <0>         0.0697
     53 H17        -3.4159    3.6375    1.8487 H         1 <0>         0.0689
     54 H18        -3.1012    4.0573    0.1308 H         1 <0>         0.0689
     55 H19        -5.4631    3.3437    0.4627 H         1 <0>         0.0795
     56 H20        -4.8956    1.7720    1.1218 H         1 <0>         0.0678
     57 H21        -4.5808    2.1917   -0.5962 H         1 <0>         0.0679
     58 H22         1.0810    3.9967    1.8171 H         1 <0>         0.1055
     59 H23         2.6737    3.6280    1.0727 H         1 <0>         0.0815
     60 H24         2.3669    3.2077    2.7920 H         1 <0>         0.0817
@<TRIPOS>BOND
     1    1    2 1
     2    1   38 1
     3    1   39 1
     4    1   40 1
     5    2    3 1
     6    2   41 1
     7    2   42 1
     8    3    8 ar
     9    3    4 ar
    10    4    5 ar
    11    4   43 1
    12    5    6 ar
    13    5   44 1
    14    6    7 ar
    15    6    9 1
    16    7    8 ar
    17    7   45 1
    18    8   46 1
    19    9   11 1
    20    9   26 1
    21    9   10 1
    22   11   22 2
    23   11   12 1
    24   12   21 2
    25   12   13 1
    26   13   18 ar
    27   13   14 ar
    28   14   15 ar
    29   14   47 1
    30   15   16 ar
    31   15   48 1
    32   16   17 ar
    33   16   20 1
    34   17   18 ar
    35   17   19 1
    36   18   49 1
    37   20   50 1
    38   20   51 1
    39   20   52 1
    40   22   24 1
    41   22   23 1
    42   24   26 am
    43   24   25 2
    44   26   27 1
    45   27   31 1
    46   27   28 2
    47   28   29 1
    48   29   30 2
    49   29   37 1
    50   30   31 1
    51   30   32 1
    52   32   33 2
    53   32   34 1
    54   34   35 1
    55   35   36 1
    56   35   53 1
    57   35   54 1
    58   36   55 1
    59   36   56 1
    60   36   57 1
    61   37   58 1
    62   37   59 1
    63   37   60 1
@<TRIPOS>MOLECULE
ZINC36052978
   64    68     0     0     0
SMALL
USER_CHARGES

@<TRIPOS>ATOM
      1 C1         -0.0104    1.5507    0.2305 C.3       1 <0>        -0.0914
      2 C2         -0.0112    0.0450    0.1687 C.2       1 <0>         0.3010
      3 C3         -1.2108   -0.6404    0.1497 C.2       1 <0>        -0.3908
      4 C4         -1.1592   -2.1506    0.0869 C.3       1 <0>         0.2592
      5 H1         -1.6889   -2.5409    0.9559 H         1 <0>         0.0729
      6 N1          0.1874   -2.7807    0.0503 N.pl3     1 <0>        -0.5117
      7 C5          0.4720   -4.1305   -0.0082 C.2       1 <0>         0.2349
      8 C6          1.7725   -4.4964   -0.0338 C.2       1 <0>        -0.3066
      9 S1          2.6003   -2.9198    0.0252 S.3       1 <0>         0.1431
     10 C7          1.2511   -1.9228    0.0775 C.2       1 <0>         0.3195
     11 N2          1.1367   -0.6115    0.1276 N.2       1 <0>        -0.5963
     12 C8         -0.6017   -5.1339   -0.0409 C.2       1 <0>        -0.4696
     13 C9         -0.3021   -6.4440    0.0488 C.2       1 <0>         0.5024
     14 O1          0.9713   -6.8320    0.3030 O.3       1 <0>        -0.7064
     15 N3         -1.2951   -7.3943   -0.1187 N.pl3     1 <0>        -0.7501
     16 C10        -0.9514   -8.8184   -0.1323 C.3       1 <0>         0.1457
     17 C11        -2.2004   -9.6415   -0.4535 C.3       1 <0>         0.0686
     18 H2         -2.6038   -9.3527   -1.4241 H         1 <0>         0.0720
     19 C12        -1.8661  -11.1544   -0.4386 C.3       1 <0>        -0.1481
     20 C13        -3.2621  -11.7618   -0.1319 C.3       1 <0>        -0.1551
     21 C14        -3.8851  -10.6983    0.7977 C.3       1 <0>         0.0499
     22 O2         -3.1915   -9.4641    0.5710 O.3       1 <0>        -0.3739
     23 C15        -1.9096   -2.5896   -1.1441 C.ar      1 <0>        -0.0690
     24 C16        -1.3465   -2.4178   -2.3948 C.ar      1 <0>        -0.0938
     25 C17        -2.0348   -2.8205   -3.5240 C.ar      1 <0>        -0.1247
     26 C18        -3.2860   -3.3954   -3.4024 C.ar      1 <0>        -0.1229
     27 C19        -3.8488   -3.5680   -2.1516 C.ar      1 <0>        -0.1206
     28 C20        -3.1586   -3.1692   -1.0222 C.ar      1 <0>        -0.0702
     29 C21        -2.4336    0.0406    0.1878 C.2       1 <0>         0.5365
     30 O3         -2.4517    1.2582    0.2387 O.2       1 <0>        -0.5510
     31 O4         -3.5938   -0.6522    0.1682 O.3       1 <0>        -0.3457
     32 C22        -4.8036    0.1072    0.2095 C.3       1 <0>         0.1113
     33 C23        -5.9850   -0.8281    0.1800 C.ar      1 <0>        -0.0863
     34 C24        -6.5328   -1.2116   -1.0299 C.ar      1 <0>        -0.0904
     35 C25        -7.6164   -2.0695   -1.0570 C.ar      1 <0>        -0.1234
     36 C26        -8.1519   -2.5441    0.1257 C.ar      1 <0>        -0.1145
     37 C27        -7.6035   -2.1613    1.3355 C.ar      1 <0>        -0.1241
     38 C28        -6.5172   -1.3068    1.3625 C.ar      1 <0>        -0.0969
     39 H3          1.0173    1.9137    0.2326 H         1 <0>         0.0636
     40 H4         -0.5351    1.9502   -0.6375 H         1 <0>         0.0859
     41 H5         -0.5130    1.8773    1.1409 H         1 <0>         0.0861
     42 H6          2.1994   -5.4875   -0.0779 H         1 <0>         0.2319
     43 H7         -1.6308   -4.8207   -0.1369 H         1 <0>         0.0921
     44 H8         -2.2184   -7.1172   -0.2269 H         1 <0>         0.3887
     45 H9         -0.1906   -9.0012   -0.8913 H         1 <0>         0.0650
     46 H10        -0.5664   -9.1086    0.8453 H         1 <0>         0.0533
     47 H11        -1.4986  -11.4851   -1.4100 H         1 <0>         0.0838
     48 H12        -1.1526  -11.3912    0.3507 H         1 <0>         0.0822
     49 H13        -3.8474  -11.8695   -1.0452 H         1 <0>         0.0746
     50 H14        -3.1647  -12.7177    0.3827 H         1 <0>         0.0800
     51 H15        -4.9423  -10.5753    0.5625 H         1 <0>         0.0642
     52 H16        -3.7695  -11.0030    1.8378 H         1 <0>         0.0663
     53 H17        -0.3689   -1.9687   -2.4898 H         1 <0>         0.1028
     54 H18        -1.5951   -2.6856   -4.5011 H         1 <0>         0.1127
     55 H19        -3.8241   -3.7093   -4.2846 H         1 <0>         0.1124
     56 H20        -4.8265   -4.0168   -2.0566 H         1 <0>         0.1135
     57 H21        -3.5967   -3.3075   -0.0447 H         1 <0>         0.1155
     58 H22        -4.8308    0.6979    1.1251 H         1 <0>         0.0680
     59 H23        -4.8449    0.7721   -0.6532 H         1 <0>         0.0679
     60 H24        -6.1144   -0.8407   -1.9539 H         1 <0>         0.1214
     61 H25        -8.0448   -2.3686   -2.0022 H         1 <0>         0.1214
     62 H26        -8.9990   -3.2138    0.1045 H         1 <0>         0.1200
     63 H27        -8.0221   -2.5319    2.2595 H         1 <0>         0.1216
     64 H28        -6.0865   -1.0107    2.3075 H         1 <0>         0.1219
@<TRIPOS>BOND
     1    1    2 1
     2    1   39 1
     3    1   40 1
     4    1   41 1
     5    2   11 1
     6    2    3 2
     7    3    4 1
     8    3   29 1
     9    4    5 1
    10    4    6 1
    11    4   23 1
    12    6   10 1
    13    6    7 1
    14    7    8 2
    15    7   12 1
    16    8    9 1
    17    8   42 1
    18    9   10 1
    19   10   11 2
    20   12   13 2
    21   12   43 1
    22   13   14 1
    23   13   15 1
    24   15   16 1
    25   15   44 1
    26   16   17 1
    27   16   45 1
    28   16   46 1
    29   17   18 1
    30   17   22 1
    31   17   19 1
    32   19   20 1
    33   19   47 1
    34   19   48 1
    35   20   21 1
    36   20   49 1
    37   20   50 1
    38   21   22 1
    39   21   51 1
    40   21   52 1
    41   23   28 ar
    42   23   24 ar
    43   24   25 ar
    44   24   53 1
    45   25   26 ar
    46   25   54 1
    47   26   27 ar
    48   26   55 1
    49   27   28 ar
    50   27   56 1
    51   28   57 1
    52   29   30 2
    53   29   31 1
    54   31   32 1
    55   32   33 1
    56   32   58 1
    57   32   59 1
    58   33   38 ar
    59   33   34 ar
    60   34   35 ar
    61   34   60 1
    62   35   36 ar
    63   35   61 1
    64   36   37 ar
    65   36   62 1
    66   37   38 ar
    67   37   63 1
    68   38   64 1
@<TRIPOS>MOLECULE
ZINC39999833
   62    65     0     0     0
SMALL
USER_CHARGES

@<TRIPOS>ATOM
      1 C1         -0.8794    2.9298   -0.3988 C.3       1 <0>        -0.1727
      2 C2         -0.9051    1.4456   -0.7696 C.3       1 <0>         0.1228
      3 N1         -2.2576    0.9172   -0.5753 N.pl3     1 <0>        -0.6314
      4 C3         -3.2246    0.9570   -1.6751 C.3       1 <0>         0.1213
      5 C4         -3.1161   -0.3294   -2.4963 C.3       1 <0>        -0.1713
      6 C5         -2.6252    0.3754    0.6585 C.ar      1 <0>         0.2139
      7 C6         -1.7114    0.3422    1.7042 C.ar      1 <0>        -0.1938
      8 C7         -2.0782   -0.1938    2.9230 C.ar      1 <0>        -0.0517
      9 C8         -3.3535   -0.6974    3.1029 C.ar      1 <0>        -0.1250
     10 C9         -4.2657   -0.6658    2.0640 C.ar      1 <0>        -0.0450
     11 C10        -3.9072   -0.1261    0.8444 C.ar      1 <0>        -0.1932
     12 C11        -3.7499   -1.2823    4.4340 C.3       1 <0>         0.2721
     13 H1         -2.8629   -1.4761    5.0369 H         1 <0>         0.0855
     14 C12        -4.6765   -0.3366    5.1619 C.2       1 <0>        -0.4762
     15 C13        -5.8436   -0.9992    5.3475 C.2       1 <0>         0.2681
     16 C14        -5.7296   -2.3535    4.7696 C.2       1 <0>         0.5105
     17 O1         -6.6106   -3.1907    4.7761 O.2       1 <0>        -0.4881
     18 N2         -4.5058   -2.5244    4.2344 N.am      1 <0>        -0.4978
     19 C15        -4.0405   -3.6724    3.6041 C.2       1 <0>         0.3296
     20 N3         -2.8608   -3.9251    3.0594 N.2       1 <0>        -0.3096
     21 N4         -2.5974   -5.0348    2.5211 N.2       1 <0>        -0.2486
     22 C16        -3.4867   -6.0165    2.4680 C.2       1 <0>        -0.0291
     23 S1         -4.8631   -5.2342    3.3042 S.3       1 <0>         0.0767
     24 S2         -3.3507   -7.6319    1.7777 S.3       1 <0>         0.0257
     25 C17        -1.6612   -7.6872    1.1197 C.3       1 <0>        -0.1136
     26 C18        -1.4064   -9.0548    0.4827 C.3       1 <0>        -0.1375
     27 O2         -6.9390   -0.4999    5.9647 O.3       1 <0>        -0.6360
     28 C19        -4.3718    1.0322    5.5855 C.2       1 <0>         0.5060
     29 O3         -4.9920    1.9672    5.1147 O.2       1 <0>        -0.4663
     30 C20        -3.3104    1.2777    6.5854 C.ar      1 <0>        -0.1417
     31 C21        -2.6731    0.2034    7.2098 C.ar      1 <0>        -0.0624
     32 C22        -1.6835    0.4395    8.1412 C.ar      1 <0>        -0.1371
     33 C23        -1.3222    1.7374    8.4577 C.ar      1 <0>        -0.0747
     34 C24        -1.9497    2.8066    7.8428 C.ar      1 <0>        -0.1371
     35 C25        -2.9369    2.5847    6.9053 C.ar      1 <0>        -0.0689
     36 C26        -0.2409    1.9875    9.4771 C.3       1 <0>        -0.1136
     37 H2          0.1269    3.3230   -0.5434 H         1 <0>         0.0596
     38 H3         -1.5772    3.4752   -1.0342 H         1 <0>         0.0533
     39 H4         -1.1694    3.0487    0.6451 H         1 <0>         0.0610
     40 H5         -0.6151    1.3268   -1.8135 H         1 <0>         0.0672
     41 H6         -0.2072    0.9003   -0.1342 H         1 <0>         0.0739
     42 H7         -4.2325    1.0454   -1.2697 H         1 <0>         0.0744
     43 H8         -3.0133    1.8147   -2.3138 H         1 <0>         0.0684
     44 H9         -3.3274   -1.1870   -1.8577 H         1 <0>         0.0587
     45 H10        -3.8356   -0.2998   -3.3146 H         1 <0>         0.0600
     46 H11        -2.1082   -0.4177   -2.9017 H         1 <0>         0.0530
     47 H12        -0.7150    0.7346    1.5641 H         1 <0>         0.1178
     48 H13        -1.3682   -0.2200    3.7364 H         1 <0>         0.1181
     49 H14        -5.2609   -1.0599    2.2079 H         1 <0>         0.1079
     50 H15        -4.6215   -0.0976    0.0349 H         1 <0>         0.1159
     51 H16        -1.5384   -6.9077    0.3678 H         1 <0>         0.0946
     52 H17        -0.9502   -7.5257    1.9300 H         1 <0>         0.0949
     53 H18        -2.1174   -9.2163   -0.3276 H         1 <0>         0.0664
     54 H19        -0.3912   -9.0880    0.0873 H         1 <0>         0.0784
     55 H20        -1.5292   -9.8343    1.2346 H         1 <0>         0.0666
     56 H21        -2.9546   -0.8099    6.9642 H         1 <0>         0.1314
     57 H22        -1.1898   -0.3904    8.6249 H         1 <0>         0.1215
     58 H23        -1.6630    3.8169    8.0944 H         1 <0>         0.1205
     59 H24        -3.4229    3.4199    6.4231 H         1 <0>         0.1288
     60 H25         0.7265    2.0330    8.9769 H         1 <0>         0.0688
     61 H26        -0.4321    2.9328    9.9851 H         1 <0>         0.0641
     62 H27        -0.2349    1.1777   10.2067 H         1 <0>         0.0649
@<TRIPOS>BOND
     1    1    2 1
     2    1   37 1
     3    1   38 1
     4    1   39 1
     5    2    3 1
     6    2   40 1
     7    2   41 1
     8    3    4 1
     9    3    6 1
    10    4    5 1
    11    4   42 1
    12    4   43 1
    13    5   44 1
    14    5   45 1
    15    5   46 1
    16    6   11 ar
    17    6    7 ar
    18    7    8 ar
    19    7   47 1
    20    8    9 ar
    21    8   48 1
    22    9   10 ar
    23    9   12 1
    24   10   11 ar
    25   10   49 1
    26   11   50 1
    27   12   13 1
    28   12   18 1
    29   12   14 1
    30   14   15 2
    31   14   28 1
    32   15   16 1
    33   15   27 1
    34   16   17 2
    35   16   18 am
    36   18   19 1
    37   19   23 1
    38   19   20 2
    39   20   21 1
    40   21   22 2
    41   22   23 1
    42   22   24 1
    43   24   25 1
    44   25   26 1
    45   25   51 1
    46   25   52 1
    47   26   53 1
    48   26   54 1
    49   26   55 1
    50   28   29 2
    51   28   30 1
    52   30   35 ar
    53   30   31 ar
    54   31   32 ar
    55   31   56 1
    56   32   33 ar
    57   32   57 1
    58   33   34 ar
    59   33   36 1
    60   34   35 ar
    61   34   58 1
    62   35   59 1
    63   36   60 1
    64   36   61 1
    65   36   62 1
@<TRIPOS>MOLECULE
ZINC40112296
   70    73     0     0     0
SMALL
USER_CHARGES

@<TRIPOS>ATOM
      1 C1         -0.3146    1.5086   -0.2110 C.3       1 <0>        -0.1506
      2 C2         -0.2761   -0.0209   -0.2087 C.3       1 <0>        -0.1206
      3 C3          0.5335   -0.5125   -1.4103 C.3       1 <0>        -0.1376
      4 C4          0.5720   -2.0420   -1.4081 C.3       1 <0>         0.1355
      5 N1          1.3472   -2.5127   -2.5586 N.am      1 <0>        -0.6107
      6 C5          0.8163   -2.8104   -3.8941 C.3       1 <0>         0.2523
      7 H1          0.3698   -1.9157   -4.3279 H         1 <0>         0.0671
      8 C6          1.9953   -3.2583   -4.7260 C.2       1 <0>        -0.5113
      9 C7          3.0821   -3.2119   -3.9203 C.2       1 <0>         0.2692
     10 C8          2.6725   -2.7429   -2.5794 C.2       1 <0>         0.5113
     11 O1          3.4217   -2.5904   -1.6352 O.2       1 <0>        -0.5344
     12 O2          4.3432   -3.5377   -4.2855 O.3       1 <0>        -0.6505
     13 C9          1.9677   -3.6647   -6.1341 C.2       1 <0>         0.4990
     14 O3          2.2236   -4.8139   -6.4407 O.2       1 <0>        -0.4630
     15 C10         1.6288   -2.6780   -7.1819 C.ar      1 <0>        -0.0764
     16 C11         1.4564   -1.3327   -6.8490 C.ar      1 <0>        -0.0852
     17 C12         1.1408   -0.4174   -7.8314 C.ar      1 <0>        -0.0379
     18 C13         0.9945   -0.8297   -9.1444 C.ar      1 <0>        -0.6687
     19 C14         1.1635   -2.1613   -9.4811 C.ar      1 <0>        -0.0361
     20 C15         1.4854   -3.0861   -8.5097 C.ar      1 <0>        -0.0970
     21 S1          0.5907    0.3462  -10.3929 S.o2      1 <0>         2.6858
     22 O4         -0.0265   -0.3779  -11.4484 O.2       1 <0>        -0.9596
     23 O5         -0.0506    1.4313   -9.7367 O.2       1 <0>        -0.9541
     24 N2          2.0183    0.9329  -10.9930 N.pl3     1 <0>        -0.9881
     25 C16         2.6064    2.0967  -10.3685 C.3       1 <0>         0.1233
     26 C17         2.0644    3.3795  -11.0459 C.3       1 <0>        -0.1412
     27 C18         2.6236    3.5178  -12.3994 C.3       1 <0>        -0.1174
     28 C19         2.2382    2.3938  -13.3564 C.3       1 <0>        -0.1178
     29 C20         3.1928    1.2385  -13.1813 C.3       1 <0>        -0.1243
     30 C21         2.6407    0.2427  -12.1397 C.3       1 <0>         0.1094
     31 C22        -0.2087   -3.9120   -3.8104 C.2       1 <0>        -0.1110
     32 C23        -1.4749   -3.6636   -4.1145 C.2       1 <0>        -0.1414
     33 C24        -2.4580   -4.7670   -4.1439 C.ar      1 <0>        -0.0393
     34 C25        -2.0578   -6.0702   -3.8463 C.ar      1 <0>        -0.1163
     35 C26        -2.9804   -7.0956   -3.8755 C.ar      1 <0>        -0.1169
     36 C27        -4.2997   -6.8341   -4.1993 C.ar      1 <0>        -0.1303
     37 C28        -4.7029   -5.5443   -4.4957 C.ar      1 <0>        -0.1209
     38 C29        -3.7915   -4.5089   -4.4636 C.ar      1 <0>        -0.1158
     39 H2          0.7017    1.8977   -0.1481 H         1 <0>         0.0535
     40 H3         -0.7814    1.8589   -1.1315 H         1 <0>         0.0532
     41 H4         -0.8913    1.8588    0.6450 H         1 <0>         0.0513
     42 H5          0.1908   -0.3713    0.7118 H         1 <0>         0.0618
     43 H6         -1.2923   -0.4100   -0.2716 H         1 <0>         0.0613
     44 H7          0.0666   -0.1621   -2.3309 H         1 <0>         0.0644
     45 H8          1.5497   -0.1234   -1.3474 H         1 <0>         0.0666
     46 H9          1.0388   -2.3924   -0.4875 H         1 <0>         0.0764
     47 H10        -0.4443   -2.4311   -1.4710 H         1 <0>         0.0748
     48 H11         1.5695   -1.0098   -5.8246 H         1 <0>         0.1446
     49 H12         1.0072    0.6232   -7.5754 H         1 <0>         0.1393
     50 H13         1.0476   -2.4764  -10.5076 H         1 <0>         0.1384
     51 H14         1.6214   -4.1242   -8.7746 H         1 <0>         0.1398
     52 H15         2.3493    2.1092   -9.3094 H         1 <0>         0.0804
     53 H16         3.6902    2.0586  -10.4780 H         1 <0>         0.0831
     54 H17         0.9777    3.3228  -11.1085 H         1 <0>         0.0711
     55 H18         2.3441    4.2480  -10.4496 H         1 <0>         0.0761
     56 H19         2.2814    4.4632  -12.8203 H         1 <0>         0.0567
     57 H20         3.7104    3.5501  -12.3232 H         1 <0>         0.0597
     58 H21         1.2228    2.0627  -13.1384 H         1 <0>         0.0635
     59 H22         2.2904    2.7563  -14.3830 H         1 <0>         0.0632
     60 H23         3.3220    0.7285  -14.1360 H         1 <0>         0.0755
     61 H24         4.1575    1.6151  -12.8414 H         1 <0>         0.0685
     62 H25         3.4558   -0.3831  -11.7761 H         1 <0>         0.0685
     63 H26         1.8951   -0.3927  -12.6176 H         1 <0>         0.0941
     64 H27         0.0882   -4.9037   -3.5027 H         1 <0>         0.1143
     65 H28        -1.7881   -2.6551   -4.3409 H         1 <0>         0.1174
     66 H29        -1.0279   -6.2757   -3.5941 H         1 <0>         0.1257
     67 H30        -2.6718   -8.1047   -3.6454 H         1 <0>         0.1202
     68 H31        -5.0180   -7.6403   -4.2211 H         1 <0>         0.1174
     69 H32        -5.7342   -5.3468   -4.7484 H         1 <0>         0.1190
     70 H33        -4.1086   -3.5017   -4.6901 H         1 <0>         0.1215
@<TRIPOS>BOND
     1    1    2 1
     2    1   39 1
     3    1   40 1
     4    1   41 1
     5    2    3 1
     6    2   42 1
     7    2   43 1
     8    3    4 1
     9    3   44 1
    10    3   45 1
    11    4    5 1
    12    4   46 1
    13    4   47 1
    14    5   10 am
    15    5    6 1
    16    6    7 1
    17    6    8 1
    18    6   31 1
    19    8    9 2
    20    8   13 1
    21    9   10 1
    22    9   12 1
    23   10   11 2
    24   13   14 2
    25   13   15 1
    26   15   20 ar
    27   15   16 ar
    28   16   17 ar
    29   16   48 1
    30   17   18 ar
    31   17   49 1
    32   18   19 ar
    33   18   21 1
    34   19   20 ar
    35   19   50 1
    36   20   51 1
    37   21   22 2
    38   21   23 2
    39   21   24 1
    40   24   30 1
    41   24   25 1
    42   25   26 1
    43   25   52 1
    44   25   53 1
    45   26   27 1
    46   26   54 1
    47   26   55 1
    48   27   28 1
    49   27   56 1
    50   27   57 1
    51   28   29 1
    52   28   58 1
    53   28   59 1
    54   29   30 1
    55   29   60 1
    56   29   61 1
    57   30   62 1
    58   30   63 1
    59   31   32 2
    60   31   64 1
    61   32   33 1
    62   32   65 1
    63   33   38 ar
    64   33   34 ar
    65   34   35 ar
    66   34   66 1
    67   35   36 ar
    68   35   67 1
    69   36   37 ar
    70   36   68 1
    71   37   38 ar
    72   37   69 1
    73   38   70 1
@<TRIPOS>MOLECULE
ZINC13342314
   50    53     0     0     0
SMALL
USER_CHARGES
4-chloro-3-[[2-[3-[(4-fluorophenyl)methyl]-4-oxo-quinazolin-2-yl]sulfanylacetyl]amino]benzoic acid
@<TRIPOS>ATOM
      1 C1          2.3820    1.4183    0.0558 C.ar      1 <0>        -0.1447
      2 C2          1.1625    2.0832    0.0634 C.ar      1 <0>        -0.0694
      3 C3         -0.0157    1.3914    0.0608 C.ar      1 <0>        -0.1148
      4 C4          0.0028   -0.0066    0.0504 C.ar      1 <0>         0.1737
      5 C5          1.2458   -0.6796    0.0428 C.ar      1 <0>        -0.2041
      6 C6          2.4327    0.0517    0.0456 C.ar      1 <0>        -0.0371
      7 C7          1.2395   -2.1488    0.0324 C.2       1 <0>         0.5572
      8 O1          2.2774   -2.7847    0.0251 O.2       1 <0>        -0.5056
      9 N1          0.0363   -2.7685    0.0309 N.am      1 <0>        -0.5223
     10 C8         -1.1181   -2.0387    0.0387 C.2       1 <0>         0.3585
     11 N2         -1.1357   -0.7286    0.0480 N.2       1 <0>        -0.5345
     12 S1         -2.6557   -2.8993    0.0356 S.3       1 <0>         0.0882
     13 C9         -3.8005   -1.4974    0.0478 C.3       1 <0>        -0.1496
     14 C10        -5.2187   -2.0070    0.0469 C.2       1 <0>         0.5250
     15 O2         -5.4343   -3.2006    0.0389 O.2       1 <0>        -0.4922
     16 N3         -6.2476   -1.1365    0.0551 N.am      1 <0>        -0.6581
     17 C11        -7.5630   -1.6064   -0.0407 C.ar      1 <0>         0.1278
     18 C12        -7.9127   -2.8113    0.5470 C.ar      1 <0>        -0.0723
     19 C13        -9.2263   -3.2732    0.4528 C.ar      1 <0>        -0.0895
     20 C14       -10.1778   -2.5226   -0.2420 C.ar      1 <0>        -0.0750
     21 C15        -9.8189   -1.3268   -0.8282 C.ar      1 <0>        -0.1113
     22 C16        -8.5174   -0.8664   -0.7308 C.ar      1 <0>        -0.0600
     23 Cl1        -8.0748    0.6399   -1.4717 Cl        1 <0>        -0.0840
     24 C17        -9.6082   -4.5536    1.0818 C.2       1 <0>         0.4892
     25 O3         -8.7793   -5.2048    1.6855 O.co2     1 <0>        -0.6206
     26 C18        -0.0282   -4.2320    0.0212 C.3       1 <0>         0.1308
     27 C19        -0.0540   -4.7243   -1.4029 C.ar      1 <0>        -0.1345
     28 C20        -1.2624   -4.9026   -2.0503 C.ar      1 <0>        -0.0656
     29 C21        -1.2871   -5.3494   -3.3579 C.ar      1 <0>        -0.1531
     30 C22        -0.1013   -5.6285   -4.0160 C.ar      1 <0>         0.1109
     31 C23         1.1082   -5.4545   -3.3649 C.ar      1 <0>        -0.1599
     32 C24         1.1306   -5.0026   -2.0590 C.ar      1 <0>        -0.0616
     33 F1         -0.1244   -6.0698   -5.2927 F         1 <0>        -0.1376
     34 H1          3.3003    1.9868    0.0580 H         1 <0>         0.1314
     35 H2          1.1454    3.1630    0.0711 H         1 <0>         0.1330
     36 H3         -0.9565    1.9218    0.0623 H         1 <0>         0.1390
     37 H4          3.3853   -0.4573    0.0401 H         1 <0>         0.1363
     38 H5         -3.6306   -0.8973    0.9417 H         1 <0>         0.1340
     39 H6         -3.6341   -0.8847   -0.8382 H         1 <0>         0.1342
     40 H7         -6.0768   -0.1844    0.1273 H         1 <0>         0.4114
     41 H8         -7.1721   -3.3892    1.0797 H         1 <0>         0.1553
     42 H9        -11.1944   -2.8788   -0.3205 H         1 <0>         0.1435
     43 H10       -10.5558   -0.7481   -1.3652 H         1 <0>         0.1335
     44 H11         0.8462   -4.6376    0.5300 H         1 <0>         0.1182
     45 H12        -0.9321   -4.5592    0.5351 H         1 <0>         0.1117
     46 H13        -2.1873   -4.6887   -1.5354 H         1 <0>         0.1453
     47 H14        -2.2310   -5.4847   -3.8648 H         1 <0>         0.1422
     48 H15         2.0338   -5.6716   -3.8773 H         1 <0>         0.1371
     49 H16         2.0739   -4.8665   -1.5510 H         1 <0>         0.1391
     50 O4        -10.8759   -4.9994    0.9860 O.co2     1 <0>        -0.7491
@<TRIPOS>BOND
     1    1    6 ar
     2    1    2 ar
     3    1   34 1
     4    2    3 ar
     5    2   35 1
     6    3    4 ar
     7    3   36 1
     8    4   11 1
     9    4    5 ar
    10    5    6 ar
    11    5    7 1
    12    6   37 1
    13    7    8 2
    14    7    9 am
    15    9   10 1
    16    9   26 1
    17   10   11 2
    18   10   12 1
    19   12   13 1
    20   13   14 1
    21   13   38 1
    22   13   39 1
    23   14   15 2
    24   14   16 am
    25   16   17 1
    26   16   40 1
    27   17   22 ar
    28   17   18 ar
    29   18   19 ar
    30   18   41 1
    31   19   20 ar
    32   19   24 1
    33   20   21 ar
    34   20   42 1
    35   21   22 ar
    36   21   43 1
    37   22   23 1
    38   24   25 2
    39   24   50 1
    40   26   27 1
    41   26   44 1
    42   26   45 1
    43   27   32 ar
    44   27   28 ar
    45   28   29 ar
    46   28   46 1
    47   29   30 ar
    48   29   47 1
    49   30   31 ar
    50   30   33 1
    51   31   32 ar
    52   31   48 1
    53   32   49 1
@<TRIPOS>MOLECULE
ZINC01464738
   51    54     0     0     0
SMALL
USER_CHARGES
ethyl 2-[(2S,3Z)-2-(4-chlorophenyl)-3-[(4-chlorophenyl)-hydroxy-methylene]-4,5-dioxo-pyrrolidin-1-yl]-4-methyl-thiazole-5-carboxylate
@<TRIPOS>ATOM
      1 C1          0.3647   -2.8733    2.2584 C.3       1 <0>        -0.1543
      2 C2          0.6838   -1.3775    2.2989 C.3       1 <0>         0.0615
      3 O1         -0.5017   -0.6299    2.0198 O.3       1 <0>        -0.3489
      4 C3         -0.3914    0.7149    2.0169 C.2       1 <0>         0.5698
      5 O2          0.6832    1.2376    2.2451 O.2       1 <0>        -0.5027
      6 C4         -1.5615    1.5435    1.7334 C.2       1 <0>        -0.3226
      7 C5         -1.6786    2.9266    1.6838 C.2       1 <0>         0.2123
      8 N1         -2.8516    3.4283    1.4012 N.2       1 <0>        -0.5469
      9 C6         -3.9026    2.6538    1.1786 C.2       1 <0>         0.3656
     10 S1         -3.2412    1.0588    1.3621 S.3       1 <0>         0.1417
     11 N2         -5.1998    3.0225    0.8763 N.am      1 <0>        -0.4969
     12 C7         -6.3131    2.0995    0.6364 C.3       1 <0>         0.2547
     13 H1         -6.0669    1.4343   -0.2044 H         1 <0>         0.0886
     14 C8         -7.5274    2.9521    0.3493 C.2       1 <0>        -0.4935
     15 C9         -8.8049    2.5094    0.0734 C.2       1 <0>         0.3928
     16 C10        -9.0701    1.0675   -0.0680 C.ar      1 <0>        -0.0655
     17 C11        -8.2482    0.2780   -0.8792 C.ar      1 <0>        -0.0930
     18 C12        -8.4997   -1.0713   -1.0034 C.ar      1 <0>        -0.1178
     19 C13        -9.5697   -1.6444   -0.3348 C.ar      1 <0>        -0.0335
     20 C14       -10.3912   -0.8675    0.4663 C.ar      1 <0>        -0.1120
     21 C15       -10.1487    0.4822    0.6036 C.ar      1 <0>        -0.0704
     22 Cl1        -9.8827   -3.3438   -0.5020 Cl        1 <0>        -0.0825
     23 O3         -9.8116    3.3979   -0.0669 O.2       1 <0>        -0.5931
     24 C16        -7.0933    4.2859    0.4200 C.2       1 <0>         0.3884
     25 O4         -7.7854    5.2726    0.2460 O.3       1 <0>        -0.4560
     26 C17        -5.6418    4.2843    0.7443 C.2       1 <0>         0.4752
     27 O5         -4.9577    5.2784    0.8772 O.2       1 <0>        -0.4520
     28 C18        -6.5566    1.2553    1.8607 C.ar      1 <0>        -0.0885
     29 C19        -6.6195    1.8486    3.1077 C.ar      1 <0>        -0.0800
     30 C20        -6.8485    1.0755    4.2303 C.ar      1 <0>        -0.1091
     31 C21        -7.0037   -0.2938    4.1071 C.ar      1 <0>        -0.0303
     32 C22        -6.9351   -0.8876    2.8594 C.ar      1 <0>        -0.1051
     33 C23        -6.7116   -0.1129    1.7369 C.ar      1 <0>        -0.0882
     34 Cl2        -7.2849   -1.2662    5.5173 Cl        1 <0>        -0.0793
     35 C24        -0.4918    3.8185    1.9428 C.3       1 <0>        -0.0885
     36 H2          1.2773   -3.4488    2.4732 H         1 <0>         0.0796
     37 H3         -0.0112   -3.1412    1.2600 H         1 <0>         0.0677
     38 H4         -0.4012   -3.1053    3.0131 H         1 <0>         0.0679
     39 H5          1.0597   -1.1096    3.2973 H         1 <0>         0.0687
     40 H6          1.4498   -1.1454    1.5443 H         1 <0>         0.0687
     41 H7         -7.4165    0.7242   -1.4042 H         1 <0>         0.1351
     42 H8         -7.8638   -1.6827   -1.6264 H         1 <0>         0.1327
     43 H9        -11.2233   -1.3208    0.9845 H         1 <0>         0.1304
     44 H10       -10.7899    1.0866    1.2280 H         1 <0>         0.1337
     45 H11        -6.4940    2.9169    3.2043 H         1 <0>         0.1240
     46 H12        -6.9020    1.5397    5.2041 H         1 <0>         0.1307
     47 H13        -7.0557   -1.9565    2.7626 H         1 <0>         0.1323
     48 H14        -6.6583   -0.5763    0.7628 H         1 <0>         0.1336
     49 H15        -0.7983    4.8713    1.8550 H         1 <0>         0.0807
     50 H16         0.2963    3.6033    1.2062 H         1 <0>         0.0873
     51 H17        -0.1073    3.6319    2.9564 H         1 <0>         0.0869
@<TRIPOS>BOND
     1    1    2 1
     2    1   36 1
     3    1   37 1
     4    1   38 1
     5    2    3 1
     6    2   39 1
     7    2   40 1
     8    3    4 1
     9    4    5 2
    10    4    6 1
    11    6   10 1
    12    6    7 2
    13    7    8 1
    14    7   35 1
    15    8    9 2
    16    9   10 1
    17    9   11 1
    18   11   26 am
    19   11   12 1
    20   12   14 1
    21   12   28 1
    22   12   13 1
    23   14   24 2
    24   14   15 1
    25   15   23 2
    26   15   16 1
    27   16   21 ar
    28   16   17 ar
    29   17   18 ar
    30   17   41 1
    31   18   19 ar
    32   18   42 1
    33   19   20 ar
    34   19   22 1
    35   20   21 ar
    36   20   43 1
    37   21   44 1
    38   24   26 1
    39   24   25 1
    40   26   27 2
    41   28   33 ar
    42   28   29 ar
    43   29   30 ar
    44   29   45 1
    45   30   31 ar
    46   30   46 1
    47   31   32 ar
    48   31   34 1
    49   32   33 ar
    50   32   47 1
    51   33   48 1
    52   35   49 1
    53   35   50 1
    54   35   51 1
@<TRIPOS>MOLECULE
ZINC35696296
   60    63     0     0     0
SMALL
USER_CHARGES

@<TRIPOS>ATOM
      1 C1         -0.0098    1.5469    0.2275 C.3       1 <0>        -0.0920
      2 C2         -0.0094    0.0412    0.1657 C.2       1 <0>         0.3022
      3 C3         -1.2084   -0.6453    0.1491 C.2       1 <0>        -0.3914
      4 C4         -1.1555   -2.1554    0.0861 C.3       1 <0>         0.2598
      5 H1         -1.6831   -2.5462    0.9561 H         1 <0>         0.0777
      6 N1          0.1916   -2.7843    0.0468 N.pl3     1 <0>        -0.5137
      7 C5          0.4773   -4.1338   -0.0122 C.2       1 <0>         0.2336
      8 C6          1.7781   -4.4986   -0.0404 C.2       1 <0>        -0.3040
      9 S1          2.6046   -2.9212    0.0170 S.3       1 <0>         0.1465
     10 C7          1.2546   -1.9254    0.0720 C.2       1 <0>         0.3196
     11 N2          1.1391   -0.6143    0.1223 N.2       1 <0>        -0.5953
     12 C8         -0.5956   -5.1382   -0.0429 C.2       1 <0>        -0.4703
     13 C9         -0.2946   -6.4480    0.0462 C.2       1 <0>         0.5029
     14 O1          0.9797   -6.8349    0.2979 O.3       1 <0>        -0.7029
     15 N3         -1.2870   -7.3993   -0.1194 N.pl3     1 <0>        -0.7499
     16 C10        -0.9420   -8.8230   -0.1337 C.3       1 <0>         0.1787
     17 C11        -2.1720   -9.6348   -0.4485 C.ar      1 <0>        -0.0926
     18 C12        -2.9903  -10.0750    0.5750 C.ar      1 <0>        -0.1053
     19 C13        -4.1185  -10.8196    0.2863 C.ar      1 <0>        -0.1246
     20 C14        -4.4288  -11.1237   -1.0260 C.ar      1 <0>        -0.1236
     21 C15        -3.6111  -10.6828   -2.0496 C.ar      1 <0>        -0.1238
     22 C16        -2.4851   -9.9345   -1.7612 C.ar      1 <0>        -0.1023
     23 C17        -1.9079   -2.5951   -1.1434 C.ar      1 <0>        -0.0635
     24 C18        -1.3463   -2.4243   -2.3950 C.ar      1 <0>        -0.0810
     25 C19        -2.0359   -2.8273   -3.5230 C.ar      1 <0>        -0.1130
     26 C20        -3.2884   -3.4018   -3.3994 C.ar      1 <0>        -0.0318
     27 C21        -3.8500   -3.5724   -2.1465 C.ar      1 <0>        -0.1156
     28 C22        -3.1570   -3.1741   -1.0189 C.ar      1 <0>        -0.0620
     29 Cl1        -4.1554   -3.9077   -4.8157 Cl        1 <0>        -0.0862
     30 C23        -2.4317    0.0346    0.1896 C.2       1 <0>         0.5366
     31 O2         -2.4508    1.2522    0.2406 O.2       1 <0>        -0.5505
     32 O3         -3.5913   -0.6592    0.1723 O.3       1 <0>        -0.3461
     33 C24        -4.8017    0.0990    0.2160 C.3       1 <0>         0.0731
     34 C25        -6.0003   -0.8516    0.1883 C.3       1 <0>         0.0633
     35 O4         -6.0074   -1.6439    1.3775 O.3       1 <0>        -0.3812
     36 C26        -7.0926   -2.5705    1.4521 C.3       1 <0>         0.0310
     37 H2          1.0176    1.9109    0.2276 H         1 <0>         0.0641
     38 H3         -0.5365    1.9460   -0.6394 H         1 <0>         0.0862
     39 H4         -0.5109    1.8730    1.1389 H         1 <0>         0.0867
     40 H5          2.2059   -5.4892   -0.0855 H         1 <0>         0.2324
     41 H6         -1.6251   -4.8259   -0.1368 H         1 <0>         0.0909
     42 H7         -2.2108   -7.1230   -0.2258 H         1 <0>         0.3855
     43 H8         -0.1822   -9.0051   -0.8938 H         1 <0>         0.0620
     44 H9         -0.5554   -9.1131    0.8433 H         1 <0>         0.0568
     45 H10        -2.7478   -9.8374    1.6003 H         1 <0>         0.1221
     46 H11        -4.7574  -11.1641    1.0860 H         1 <0>         0.1192
     47 H12        -5.3099  -11.7061   -1.2515 H         1 <0>         0.1177
     48 H13        -3.8533  -10.9207   -3.0749 H         1 <0>         0.1194
     49 H14        -1.8483   -9.5868   -2.5611 H         1 <0>         0.1225
     50 H15        -0.3687   -1.9755   -2.4915 H         1 <0>         0.1147
     51 H16        -1.5972   -2.6935   -4.5008 H         1 <0>         0.1261
     52 H17        -4.8278   -4.0205   -2.0494 H         1 <0>         0.1256
     53 H18        -3.5932   -3.3116   -0.0405 H         1 <0>         0.1308
     54 H19        -4.8276    0.6897    1.1317 H         1 <0>         0.0689
     55 H20        -4.8453    0.7639   -0.6467 H         1 <0>         0.0752
     56 H21        -6.9220   -0.2725    0.1320 H         1 <0>         0.0650
     57 H22        -5.9270   -1.5035   -0.6822 H         1 <0>         0.0603
     58 H23        -8.0371   -2.0272    1.4220 H         1 <0>         0.0380
     59 H24        -7.0420   -3.2581    0.6078 H         1 <0>         0.0420
     60 H25        -7.0267   -3.1332    2.3833 H         1 <0>         0.0856
@<TRIPOS>BOND
     1    1    2 1
     2    1   37 1
     3    1   38 1
     4    1   39 1
     5    2   11 1
     6    2    3 2
     7    3    4 1
     8    3   30 1
     9    4    5 1
    10    4    6 1
    11    4   23 1
    12    6   10 1
    13    6    7 1
    14    7    8 2
    15    7   12 1
    16    8    9 1
    17    8   40 1
    18    9   10 1
    19   10   11 2
    20   12   13 2
    21   12   41 1
    22   13   14 1
    23   13   15 1
    24   15   16 1
    25   15   42 1
    26   16   17 1
    27   16   43 1
    28   16   44 1
    29   17   22 ar
    30   17   18 ar
    31   18   19 ar
    32   18   45 1
    33   19   20 ar
    34   19   46 1
    35   20   21 ar
    36   20   47 1
    37   21   22 ar
    38   21   48 1
    39   22   49 1
    40   23   28 ar
    41   23   24 ar
    42   24   25 ar
    43   24   50 1
    44   25   26 ar
    45   25   51 1
    46   26   27 ar
    47   26   29 1
    48   27   28 ar
    49   27   52 1
    50   28   53 1
    51   30   31 2
    52   30   32 1
    53   32   33 1
    54   33   34 1
    55   33   54 1
    56   33   55 1
    57   34   35 1
    58   34   56 1
    59   34   57 1
    60   35   36 1
    61   36   58 1
    62   36   59 1
    63   36   60 1
@<TRIPOS>MOLECULE
ZINC13271431
   50    52     0     0     0
SMALL
USER_CHARGES

@<TRIPOS>ATOM
      1 C1         -0.0076    1.5196    0.0192 C.3       1 <0>        -0.1415
      2 C2          0.0045   -0.0103    0.0034 C.3       1 <0>        -0.1333
      3 H1          0.5302   -0.3786    0.8843 H         1 <0>         0.1241
      4 C3         -1.4122   -0.5240    0.0125 C.2       1 <0>         0.5439
      5 O1         -1.9307   -0.8915   -1.0205 O.2       1 <0>        -0.4887
      6 N1         -2.1031   -0.5750    1.1686 N.am      1 <0>        -0.6670
      7 C4         -3.4483   -0.9599    1.1633 C.ar      1 <0>         0.1782
      8 C5         -4.3427   -0.3744    2.0495 C.ar      1 <0>        -0.1338
      9 C6         -5.6713   -0.7561    2.0419 C.ar      1 <0>        -0.0059
     10 C7         -6.1103   -1.7207    1.1522 C.ar      1 <0>        -0.1199
     11 C8         -5.2209   -2.3061    0.2683 C.ar      1 <0>        -0.0037
     12 C9         -3.8924   -1.9238    0.2679 C.ar      1 <0>        -0.1088
     13 Cl1        -5.7754   -3.5163   -0.8459 Cl        1 <0>        -0.0482
     14 Cl2        -6.7900   -0.0250    3.1500 Cl        1 <0>        -0.0555
     15 S1          0.8493   -0.5928   -1.4925 S.3       1 <0>         0.1248
     16 C10         2.5103   -0.0426   -1.2856 C.2       1 <0>         0.1591
     17 N2          2.9868    0.6281   -0.2616 N.2       1 <0>        -0.3028
     18 N3          4.2375    0.8684   -0.4330 N.2       1 <0>        -0.2649
     19 C11         4.6382    0.3650   -1.5797 C.2       1 <0>         0.2493
     20 N4          3.5443   -0.2395   -2.1584 N.pl3     1 <0>        -0.4048
     21 C12         3.4976   -0.9440   -3.4420 C.3       1 <0>         0.0557
     22 H2          4.4865   -0.9300   -3.9004 H         1 <0>         0.0971
     23 C13         2.4964   -0.2508   -4.3682 C.3       1 <0>        -0.0868
     24 C14         2.9318    1.1980   -4.5971 C.3       1 <0>        -0.1504
     25 C15         2.4476   -0.9866   -5.7088 C.3       1 <0>        -0.1494
     26 C16         3.0687   -2.3710   -3.2166 C.2       1 <0>         0.4957
     27 O2          2.0561   -2.7943   -3.7475 O.co2     1 <0>        -0.6484
     28 O3          3.7344   -3.1022   -2.5033 O.co2     1 <0>        -0.6712
     29 C17         5.9991    0.4297   -2.1364 C.2       1 <0>        -0.0715
     30 C18         7.1762    0.7484   -1.5076 C.2       1 <0>        -0.1189
     31 C19         8.3405    0.7418   -2.2424 C.2       1 <0>        -0.1538
     32 C20         8.2895    0.4216   -3.5613 C.2       1 <0>        -0.1820
     33 S2          6.5492    0.1063   -3.8038 S.3       1 <0>         0.0830
     34 H3          1.0171    1.8912    0.0126 H         1 <0>         0.0907
     35 H4         -0.5334    1.8880   -0.8617 H         1 <0>         0.0712
     36 H5         -0.5152    1.8696    0.9181 H         1 <0>         0.0668
     37 H6         -1.6678   -0.3449    2.0043 H         1 <0>         0.4187
     38 H7         -4.0006    0.3783    2.7444 H         1 <0>         0.1444
     39 H8         -7.1487   -2.0175    1.1479 H         1 <0>         0.1450
     40 H9         -3.1997   -2.3775   -0.4254 H         1 <0>         0.1614
     41 H10         1.5075   -0.2649   -3.9099 H         1 <0>         0.0877
     42 H11         3.9207    1.2120   -5.0554 H         1 <0>         0.0525
     43 H12         2.2185    1.6918   -5.2569 H         1 <0>         0.0594
     44 H13         2.9665    1.7221   -3.6420 H         1 <0>         0.0432
     45 H14         2.1374   -2.0187   -5.5457 H         1 <0>         0.1020
     46 H15         1.7343   -0.4927   -6.3686 H         1 <0>         0.0491
     47 H16         3.4365   -0.9725   -6.1671 H         1 <0>         0.0398
     48 H17         7.1892    0.9997   -0.4573 H         1 <0>         0.1432
     49 H18         9.2828    0.9885   -1.7759 H         1 <0>         0.1376
     50 H19         9.0954    0.3679   -4.2783 H         1 <0>         0.1877
@<TRIPOS>BOND
     1    1    2 1
     2    1   34 1
     3    1   35 1
     4    1   36 1
     5    2    3 1
     6    2    4 1
     7    2   15 1
     8    4    5 2
     9    4    6 am
    10    6    7 1
    11    6   37 1
    12    7   12 ar
    13    7    8 ar
    14    8    9 ar
    15    8   38 1
    16    9   10 ar
    17    9   14 1
    18   10   11 ar
    19   10   39 1
    20   11   12 ar
    21   11   13 1
    22   12   40 1
    23   15   16 1
    24   16   20 1
    25   16   17 2
    26   17   18 1
    27   18   19 2
    28   19   20 1
    29   19   29 1
    30   20   21 1
    31   21   22 1
    32   21   23 1
    33   21   26 1
    34   23   24 1
    35   23   25 1
    36   23   41 1
    37   24   42 1
    38   24   43 1
    39   24   44 1
    40   25   45 1
    41   25   46 1
    42   25   47 1
    43   26   27 2
    44   26   28 1
    45   29   33 1
    46   29   30 2
    47   30   31 1
    48   30   48 1
    49   31   32 2
    50   31   49 1
    51   32   33 1
    52   32   50 1
@<TRIPOS>MOLECULE
ZINC40077032
   65    67     0     0     0
SMALL
USER_CHARGES

@<TRIPOS>ATOM
      1 C1          0.4729    0.3253    0.3264 C.3       1 <0>        -0.1442
      2 C2          0.0184   -1.0543   -0.1540 C.3       1 <0>        -0.0170
      3 C3          0.6726   -2.1357    0.7081 C.3       1 <0>        -0.1394
      4 C4         -1.5035   -1.1595   -0.0362 C.3       1 <0>        -0.1385
      5 C5          0.4251   -1.2444   -1.5926 C.ar      1 <0>        -0.0977
      6 C6          1.0547   -0.2208   -2.2740 C.ar      1 <0>        -0.1099
      7 C7          1.4281   -0.3946   -3.5939 C.ar      1 <0>        -0.0771
      8 C8          1.1726   -1.5926   -4.2351 C.ar      1 <0>        -0.0707
      9 C9          0.5434   -2.6193   -3.5581 C.ar      1 <0>        -0.0984
     10 C10         0.1728   -2.4495   -2.2320 C.ar      1 <0>         0.1042
     11 O1         -0.4409   -3.4601   -1.5619 O.3       1 <0>        -0.4885
     12 C11         0.2652   -3.9248   -4.2576 C.3       1 <0>        -0.0178
     13 C12         0.7761   -3.8507   -5.6978 C.3       1 <0>        -0.1462
     14 C13         0.9789   -5.0602   -3.5210 C.3       1 <0>        -0.1360
     15 C14        -1.2418   -4.1890   -4.2639 C.3       1 <0>        -0.1397
     16 C15         2.1142    0.7239   -4.3350 C.3       1 <0>         0.2649
     17 H1          2.3817    1.5226   -3.6433 H         1 <0>         0.0657
     18 C16         1.2104    1.2585   -5.4213 C.2       1 <0>        -0.5086
     19 C17         1.8548    1.0653   -6.5959 C.2       1 <0>         0.2679
     20 C18         3.1587    0.4200   -6.3338 C.2       1 <0>         0.5156
     21 O2          3.9704    0.1169   -7.1855 O.2       1 <0>        -0.5211
     22 N1          3.3149    0.2190   -5.0114 N.am      1 <0>        -0.6094
     23 C19         4.4763   -0.3943   -4.3624 C.3       1 <0>         0.1396
     24 C20         4.2645   -1.9062   -4.2610 C.3       1 <0>         0.0500
     25 O3          4.2229   -2.4704   -5.5733 O.3       1 <0>        -0.5501
     26 O4          1.3808    1.4079   -7.8157 O.3       1 <0>        -0.6533
     27 C21        -0.1099    1.8687   -5.2385 C.2       1 <0>         0.5038
     28 O5         -1.1022    1.3126   -5.6703 O.2       1 <0>        -0.4692
     29 C22        -0.2357    3.1596   -4.5296 C.ar      1 <0>        -0.1180
     30 C23         0.9082    3.8650   -4.1488 C.ar      1 <0>        -0.0592
     31 C24         0.7841    5.0686   -3.4878 C.ar      1 <0>        -0.1073
     32 C25        -0.4714    5.5784   -3.2011 C.ar      1 <0>        -0.0770
     33 C26        -1.6096    4.8836   -3.5756 C.ar      1 <0>        -0.1069
     34 C27        -1.4991    3.6820   -4.2426 C.ar      1 <0>        -0.0712
     35 Br1        -0.6324    7.2299   -2.2941 Br        1 <0>        -0.0628
     36 H2          1.5612    0.3795    0.2984 H         1 <0>         0.0568
     37 H3          0.0541    1.0929   -0.3243 H         1 <0>         0.0593
     38 H4          0.1273    0.4865    1.3476 H         1 <0>         0.0536
     39 H5          0.3784   -1.9982    1.7486 H         1 <0>         0.0475
     40 H6          0.3488   -3.1186    0.3658 H         1 <0>         0.0760
     41 H7          1.7568   -2.0607    0.6242 H         1 <0>         0.0484
     42 H8         -1.9696   -0.3891   -0.6504 H         1 <0>         0.0546
     43 H9         -1.8273   -2.1424   -0.3785 H         1 <0>         0.0547
     44 H10        -1.7977   -1.0220    1.0043 H         1 <0>         0.0549
     45 H11         1.2550    0.7161   -1.7755 H         1 <0>         0.1243
     46 H12         1.4650   -1.7258   -5.2662 H         1 <0>         0.1305
     47 H13        -1.4054   -3.4486   -1.6304 H         1 <0>         0.3746
     48 H14         1.8497   -3.6625   -5.6933 H         1 <0>         0.0589
     49 H15         0.5749   -4.7950   -6.2038 H         1 <0>         0.0532
     50 H16         0.2677   -3.0419   -6.2225 H         1 <0>         0.0619
     51 H17         0.6150   -5.1130   -2.4950 H         1 <0>         0.0725
     52 H18         0.7777   -6.0045   -4.0270 H         1 <0>         0.0490
     53 H19         2.0525   -4.8720   -3.5165 H         1 <0>         0.0463
     54 H20        -1.7502   -3.3802   -4.7887 H         1 <0>         0.0563
     55 H21        -1.4430   -5.1333   -4.7699 H         1 <0>         0.0552
     56 H22        -1.6057   -4.2418   -3.2379 H         1 <0>         0.0549
     57 H23         5.3708   -0.1914   -4.9513 H         1 <0>         0.0833
     58 H24         4.5967    0.0235   -3.3629 H         1 <0>         0.0854
     59 H25         5.0862   -2.3514   -3.7000 H         1 <0>         0.0430
     60 H26         3.3236   -2.1078   -3.7489 H         1 <0>         0.0569
     61 H27         4.0909   -3.4283   -5.5855 H         1 <0>         0.3667
     62 H28         1.8877    3.4684   -4.3715 H         1 <0>         0.1436
     63 H29         1.6678    5.6148   -3.1925 H         1 <0>         0.1326
     64 H30        -2.5858    5.2860   -3.3485 H         1 <0>         0.1312
     65 H31        -2.3873    3.1434   -4.5383 H         1 <0>         0.1375
@<TRIPOS>BOND
     1    1    2 1
     2    1   36 1
     3    1   37 1
     4    1   38 1
     5    2    3 1
     6    2    4 1
     7    2    5 1
     8    3   39 1
     9    3   40 1
    10    3   41 1
    11    4   42 1
    12    4   43 1
    13    4   44 1
    14    5   10 ar
    15    5    6 ar
    16    6    7 ar
    17    6   45 1
    18    7    8 ar
    19    7   16 1
    20    8    9 ar
    21    8   46 1
    22    9   10 ar
    23    9   12 1
    24   10   11 1
    25   11   47 1
    26   12   13 1
    27   12   14 1
    28   12   15 1
    29   13   48 1
    30   13   49 1
    31   13   50 1
    32   14   51 1
    33   14   52 1
    34   14   53 1
    35   15   54 1
    36   15   55 1
    37   15   56 1
    38   16   17 1
    39   16   22 1
    40   16   18 1
    41   18   19 2
    42   18   27 1
    43   19   20 1
    44   19   26 1
    45   20   21 2
    46   20   22 am
    47   22   23 1
    48   23   24 1
    49   23   57 1
    50   23   58 1
    51   24   25 1
    52   24   59 1
    53   24   60 1
    54   25   61 1
    55   27   28 2
    56   27   29 1
    57   29   34 ar
    58   29   30 ar
    59   30   31 ar
    60   30   62 1
    61   31   32 ar
    62   31   63 1
    63   32   33 ar
    64   32   35 1
    65   33   34 ar
    66   33   64 1
    67   34   65 1
@<TRIPOS>MOLECULE
ZINC09110980
   58    61     0     0     0
SMALL
USER_CHARGES

@<TRIPOS>ATOM
      1 C1          1.1267   -0.6970    0.3898 C.3       1 <0>         0.0297
      2 O1         -0.0092    0.0438   -0.0609 O.3       1 <0>        -0.3212
      3 C2         -1.2094   -0.5931   -0.0392 C.ar      1 <0>         0.1567
      4 C3         -1.2925   -1.9030    0.4123 C.ar      1 <0>        -0.2452
      5 C4         -2.5124   -2.5511    0.4346 C.ar      1 <0>        -0.0150
      6 C5         -3.6526   -1.8975    0.0072 C.ar      1 <0>        -0.1329
      7 C6         -3.5747   -0.5881   -0.4451 C.ar      1 <0>         0.1858
      8 C7         -2.3526    0.0666   -0.4626 C.ar      1 <0>        -0.2484
      9 O2         -4.6963    0.0541   -0.8653 O.3       1 <0>        -0.2957
     10 C8         -4.5418    1.4008   -1.3177 C.3       1 <0>         0.0274
     11 C9         -4.9815   -2.6078    0.0318 C.3       1 <0>         0.2721
     12 H1         -4.9028   -3.5265    0.6130 H         1 <0>         0.0800
     13 C10        -5.4262   -2.9231   -1.3776 C.2       1 <0>        -0.4836
     14 C11        -4.7642   -3.7181   -2.3020 C.2       1 <0>         0.3821
     15 C12        -5.2508   -3.8182   -3.6250 C.2       1 <0>        -0.1467
     16 C13        -4.6047   -4.5941   -4.5271 C.2       1 <0>        -0.0864
     17 C14        -5.1109   -4.6982   -5.9032 C.ar      1 <0>        -0.0488
     18 C15        -6.2572   -3.9924   -6.2866 C.ar      1 <0>        -0.1095
     19 C16        -6.7253   -4.0956   -7.5790 C.ar      1 <0>        -0.1204
     20 C17        -6.0650   -4.8945   -8.4968 C.ar      1 <0>        -0.1291
     21 C18        -4.9306   -5.5958   -8.1257 C.ar      1 <0>        -0.1251
     22 C19        -4.4460   -5.4991   -6.8388 C.ar      1 <0>        -0.1116
     23 O3         -3.6535   -4.3970   -1.9371 O.3       1 <0>        -0.6366
     24 C20        -6.6409   -2.2516   -1.5629 C.2       1 <0>         0.3784
     25 O4         -7.3147   -2.2616   -2.5783 O.2       1 <0>        -0.5105
     26 C21        -6.9673   -1.5254   -0.3083 C.2       1 <0>         0.4919
     27 O5         -7.9571   -0.8431   -0.1367 O.2       1 <0>        -0.5098
     28 N1         -6.0071   -1.7342    0.6097 N.am      1 <0>        -0.5348
     29 C22        -5.9895   -1.2057    1.9035 C.ar      1 <0>         0.1985
     30 C23        -4.9331   -1.4934    2.7588 C.ar      1 <0>        -0.1293
     31 C24        -4.9185   -0.9692    4.0361 C.ar      1 <0>        -0.0912
     32 C25        -5.9543   -0.1589    4.4646 C.ar      1 <0>        -0.1154
     33 C26        -7.0075    0.1291    3.6161 C.ar      1 <0>        -0.1571
     34 C27        -7.0252   -0.3870    2.3351 C.ar      1 <0>        -0.1169
     35 C28        -8.1343    1.0116    4.0877 C.3       1 <0>         0.5107
     36 F1         -7.8920    1.4129    5.4058 F         1 <0>        -0.1806
     37 F2         -8.2188    2.1398    3.2648 F         1 <0>        -0.1764
     38 F3         -9.3382    0.3013    4.0304 F         1 <0>        -0.1761
     39 H2          2.0180   -0.0733    0.3208 H         1 <0>         0.0948
     40 H3          0.9749   -1.0005    1.4256 H         1 <0>         0.0542
     41 H4          1.2536   -1.5822   -0.2334 H         1 <0>         0.0556
     42 H5         -0.4027   -2.4161    0.7462 H         1 <0>         0.1247
     43 H6         -2.5750   -3.5703    0.7863 H         1 <0>         0.1321
     44 H7         -2.2906    1.0873   -0.8100 H         1 <0>         0.1299
     45 H8         -4.1399    2.0117   -0.5094 H         1 <0>         0.0516
     46 H9         -3.8567    1.4230   -2.1651 H         1 <0>         0.0542
     47 H10        -5.5110    1.7947   -1.6236 H         1 <0>         0.0964
     48 H11        -6.1381   -3.2758   -3.9164 H         1 <0>         0.1402
     49 H12        -3.7174   -5.1364   -4.2356 H         1 <0>         0.1292
     50 H13        -6.7737   -3.3690   -5.5717 H         1 <0>         0.1332
     51 H14        -7.6099   -3.5520   -7.8764 H         1 <0>         0.1206
     52 H15        -6.4372   -4.9713   -9.5077 H         1 <0>         0.1167
     53 H16        -4.4213   -6.2169   -8.8477 H         1 <0>         0.1185
     54 H17        -3.5581   -6.0431   -6.5523 H         1 <0>         0.1228
     55 H18        -4.1243   -2.1266    2.4251 H         1 <0>         0.1369
     56 H19        -4.0977   -1.1924    4.7015 H         1 <0>         0.1341
     57 H20        -5.9407    0.2496    5.4643 H         1 <0>         0.1330
     58 H21        -7.8459   -0.1581    1.6713 H         1 <0>         0.1622
@<TRIPOS>BOND
     1    1    2 1
     2    1   39 1
     3    1   40 1
     4    1   41 1
     5    2    3 1
     6    3    8 ar
     7    3    4 ar
     8    4    5 ar
     9    4   42 1
    10    5    6 ar
    11    5   43 1
    12    6    7 ar
    13    6   11 1
    14    7    8 ar
    15    7    9 1
    16    8   44 1
    17    9   10 1
    18   10   45 1
    19   10   46 1
    20   10   47 1
    21   11   12 1
    22   11   28 1
    23   11   13 1
    24   13   14 2
    25   13   24 1
    26   14   15 1
    27   14   23 1
    28   15   16 2
    29   15   48 1
    30   16   17 1
    31   16   49 1
    32   17   22 ar
    33   17   18 ar
    34   18   19 ar
    35   18   50 1
    36   19   20 ar
    37   19   51 1
    38   20   21 ar
    39   20   52 1
    40   21   22 ar
    41   21   53 1
    42   22   54 1
    43   24   25 2
    44   24   26 1
    45   26   27 2
    46   26   28 am
    47   28   29 1
    48   29   34 ar
    49   29   30 ar
    50   30   31 ar
    51   30   55 1
    52   31   32 ar
    53   31   56 1
    54   32   33 ar
    55   32   57 1
    56   33   34 ar
    57   33   35 1
    58   34   58 1
    59   35   36 1
    60   35   37 1
    61   35   38 1
@<TRIPOS>MOLECULE
ZINC13179657
   55    57     0     0     0
SMALL
USER_CHARGES
(3R)-3-[[4-[(2,4-dichlorophenyl)methoxy]-3-methoxy-benzoyl]amino]-3-(p-tolyl)propanoic acid
@<TRIPOS>ATOM
      1 C1         -4.2688   -3.8169   -5.2932 C.3       1 <0>        -0.1096
      2 C2         -3.8035   -3.5671   -3.8818 C.ar      1 <0>        -0.0993
      3 C3         -4.7230   -3.2706   -2.8931 C.ar      1 <0>        -0.1201
      4 C4         -4.2962   -3.0419   -1.5984 C.ar      1 <0>        -0.1013
      5 C5         -2.9499   -3.1092   -1.2923 C.ar      1 <0>        -0.0832
      6 C6         -2.0298   -3.4001   -2.2821 C.ar      1 <0>        -0.1037
      7 C7         -2.4571   -3.6340   -3.5758 C.ar      1 <0>        -0.1226
      8 C8         -2.4846   -2.8595    0.1191 C.3       1 <0>         0.2042
      9 H1         -3.2529   -2.3100    0.6631 H         1 <0>         0.0982
     10 C9         -2.2251   -4.1972    0.8148 C.3       1 <0>        -0.1644
     11 C10        -1.8935   -3.9535    2.2645 C.2       1 <0>         0.4586
     12 O1         -1.7875   -2.8232    2.6783 O.co2     1 <0>        -0.6266
     13 N1         -1.2480   -2.0742    0.0939 N.am      1 <0>        -0.6900
     14 C11        -1.3051   -0.7289    0.0365 C.2       1 <0>         0.5681
     15 O2         -2.3782   -0.1707   -0.0867 O.2       1 <0>        -0.5444
     16 C12        -0.0649    0.0668    0.1233 C.ar      1 <0>        -0.1150
     17 C13         1.1688   -0.5730    0.2655 C.ar      1 <0>        -0.0745
     18 C14         2.3256    0.1712    0.3473 C.ar      1 <0>        -0.1787
     19 C15         2.2687    1.5571    0.2884 C.ar      1 <0>         0.1197
     20 C16         1.0410    2.2019    0.1462 C.ar      1 <0>         0.0919
     21 C17        -0.1224    1.4617    0.0640 C.ar      1 <0>        -0.1142
     22 O3          0.9886    3.5597    0.0892 O.3       1 <0>        -0.3075
     23 C18        -0.3030    4.1536   -0.0562 C.3       1 <0>         0.0240
     24 O4          3.4116    2.2861    0.3690 O.3       1 <0>        -0.2982
     25 C19         4.6346    1.5612    0.5134 C.3       1 <0>         0.0960
     26 C20         5.7870    2.5297    0.5856 C.ar      1 <0>        -0.0736
     27 C21         5.5523    3.8900    0.5108 C.ar      1 <0>        -0.0700
     28 C22         6.6085    4.7787    0.5774 C.ar      1 <0>        -0.1038
     29 C23         7.9018    4.3074    0.7192 C.ar      1 <0>        -0.0249
     30 C24         8.1373    2.9465    0.7941 C.ar      1 <0>        -0.1012
     31 C25         7.0790    2.0575    0.7326 C.ar      1 <0>        -0.0203
     32 Cl1         7.3729    0.3495    0.8333 Cl        1 <0>        -0.0500
     33 Cl2         9.2285    5.4239    0.8023 Cl        1 <0>        -0.0583
     34 H2         -4.2833   -2.8758   -5.8429 H         1 <0>         0.0654
     35 H3         -3.5876   -4.5131   -5.7825 H         1 <0>         0.0623
     36 H4         -5.2721   -4.2425   -5.2750 H         1 <0>         0.0627
     37 H5         -5.7749   -3.2179   -3.1322 H         1 <0>         0.1181
     38 H6         -5.0147   -2.8102   -0.8260 H         1 <0>         0.1223
     39 H7         -0.9775   -3.4485   -2.0439 H         1 <0>         0.1166
     40 H8         -1.7386   -3.8653   -4.3483 H         1 <0>         0.1165
     41 H9         -3.1160   -4.8214    0.7459 H         1 <0>         0.0817
     42 H10        -1.3892   -4.7023    0.3308 H         1 <0>         0.0702
     43 H11        -0.3882   -2.5226    0.1185 H         1 <0>         0.3948
     44 H12         1.2158   -1.6510    0.3116 H         1 <0>         0.1337
     45 H13         3.2786   -0.3248    0.4571 H         1 <0>         0.1405
     46 H14        -1.0738    1.9598   -0.0503 H         1 <0>         0.1492
     47 H15        -0.7617    3.8037   -0.9810 H         1 <0>         0.0564
     48 H16        -0.9299    3.8715    0.7897 H         1 <0>         0.0582
     49 H17        -0.2025    5.2385   -0.0882 H         1 <0>         0.0998
     50 H18         4.6001    0.9687    1.4276 H         1 <0>         0.0874
     51 H19         4.7686    0.9004   -0.3430 H         1 <0>         0.0860
     52 H20         4.5430    4.2583    0.4005 H         1 <0>         0.1561
     53 H21         6.4245    5.8413    0.5193 H         1 <0>         0.1428
     54 H22         9.1465    2.5782    0.9051 H         1 <0>         0.1469
     55 O5         -1.7158   -4.9920    3.0962 O.co2     1 <0>        -0.7727
@<TRIPOS>BOND
     1    1    2 1
     2    1   34 1
     3    1   35 1
     4    1   36 1
     5    2    7 ar
     6    2    3 ar
     7    3    4 ar
     8    3   37 1
     9    4    5 ar
    10    4   38 1
    11    5    6 ar
    12    5    8 1
    13    6    7 ar
    14    6   39 1
    15    7   40 1
    16    8    9 1
    17    8   10 1
    18    8   13 1
    19   10   11 1
    20   10   41 1
    21   10   42 1
    22   11   12 2
    23   11   55 1
    24   13   14 am
    25   13   43 1
    26   14   15 2
    27   14   16 1
    28   16   21 ar
    29   16   17 ar
    30   17   18 ar
    31   17   44 1
    32   18   19 ar
    33   18   45 1
    34   19   20 ar
    35   19   24 1
    36   20   21 ar
    37   20   22 1
    38   21   46 1
    39   22   23 1
    40   23   47 1
    41   23   48 1
    42   23   49 1
    43   24   25 1
    44   25   26 1
    45   25   50 1
    46   25   51 1
    47   26   31 ar
    48   26   27 ar
    49   27   28 ar
    50   27   52 1
    51   28   29 ar
    52   28   53 1
    53   29   30 ar
    54   29   33 1
    55   30   31 ar
    56   30   54 1
    57   31   32 1
@<TRIPOS>MOLECULE
ZINC05316679
   62    65     0     0     0
SMALL
USER_CHARGES

@<TRIPOS>ATOM
      1 C1          1.2974   -2.2518    1.7939 C.3       1 <0>        -0.1124
      2 C2         -0.1400   -2.0649    1.3818 C.ar      1 <0>        -0.1019
      3 C3         -0.6455   -2.7607    0.3010 C.ar      1 <0>        -0.1163
      4 C4         -1.9641   -2.5894   -0.0780 C.ar      1 <0>        -0.1308
      5 C5         -2.7814   -1.7214    0.6231 C.ar      1 <0>        -0.1109
      6 C6         -2.2826   -1.0227    1.7045 C.ar      1 <0>        -0.0600
      7 C7         -0.9597   -1.1971    2.0920 C.ar      1 <0>         0.1541
      8 N1         -0.4531   -0.4958    3.1896 N.am      1 <0>        -0.6684
      9 C8         -0.5925    0.8431    3.2567 C.2       1 <0>         0.5175
     10 O1         -1.0999    1.4482    2.3329 O.2       1 <0>        -0.5037
     11 C9         -0.1276    1.5764    4.4552 C.2       1 <0>         0.2644
     12 O2          0.4711    0.9072    5.4682 O.3       1 <0>        -0.6847
     13 C10        -0.3010    2.9156    4.5384 C.2       1 <0>        -0.4467
     14 C11         0.0735    3.6468    5.8017 C.3       1 <0>         0.2135
     15 H1          0.4059    2.9365    6.5588 H         1 <0>         0.1319
     16 C12         1.1667    4.6446    5.5154 C.ar      1 <0>        -0.0595
     17 C13         2.4520    4.5317    5.0399 C.ar      1 <0>        -0.0874
     18 C14         3.2323    5.6649    4.8815 C.ar      1 <0>        -0.0837
     19 C15         2.7235    6.9119    5.2000 C.ar      1 <0>        -0.1418
     20 C16         1.4352    7.0369    5.6779 C.ar      1 <0>        -0.0421
     21 C17         0.6434    5.8996    5.8400 C.ar      1 <0>        -0.2102
     22 C18        -0.7372    5.6980    6.3162 C.2       1 <0>         0.5189
     23 O3         -1.4844    6.5832    6.6818 O.2       1 <0>        -0.4740
     24 O4         -1.0476    4.3903    6.2872 O.3       1 <0>        -0.3091
     25 C19        -0.8537    3.6562    3.3982 C.2       1 <0>         0.4694
     26 O5         -0.2015    3.7767    2.3761 O.2       1 <0>        -0.4714
     27 C20        -2.1886    4.2500    3.4890 C.2       1 <0>        -0.1801
     28 C21        -2.7363    4.8485    2.4091 C.2       1 <0>        -0.0723
     29 C22        -4.0776    5.4453    2.5003 C.ar      1 <0>        -0.0521
     30 C23        -4.7870    5.4000    3.7054 C.ar      1 <0>        -0.1048
     31 C24        -6.0436    5.9621    3.7828 C.ar      1 <0>        -0.1192
     32 C25        -6.6035    6.5699    2.6723 C.ar      1 <0>        -0.1243
     33 C26        -5.9084    6.6184    1.4763 C.ar      1 <0>        -0.1243
     34 C27        -4.6485    6.0662    1.3840 C.ar      1 <0>        -0.1076
     35 C28        -3.1736   -0.0767    2.4676 C.3       1 <0>        -0.0616
     36 C29        -3.8407    0.8946    1.4917 C.3       1 <0>        -0.1286
     37 C30        -4.2489   -0.8745    3.2081 C.3       1 <0>        -0.1404
     38 H2          1.3551   -3.0045    2.5802 H         1 <0>         0.0682
     39 H3          1.8823   -2.5789    0.9342 H         1 <0>         0.0643
     40 H4          1.6947   -1.3072    2.1654 H         1 <0>         0.0690
     41 H5         -0.0099   -3.4390   -0.2488 H         1 <0>         0.1194
     42 H6         -2.3567   -3.1344   -0.9237 H         1 <0>         0.1175
     43 H7         -3.8108   -1.5897    0.3242 H         1 <0>         0.1196
     44 H8         -0.0011   -0.9727    3.9032 H         1 <0>         0.4166
     45 H9          2.8525    3.5603    4.7899 H         1 <0>         0.1339
     46 H10         4.2418    5.5751    4.5083 H         1 <0>         0.1297
     47 H11         3.3378    7.7912    5.0743 H         1 <0>         0.1287
     48 H12         1.0411    8.0115    5.9255 H         1 <0>         0.1282
     49 H13        -2.7355    4.2095    4.4194 H         1 <0>         0.1237
     50 H14        -2.1893    4.8890    1.4787 H         1 <0>         0.1266
     51 H15        -4.3516    4.9258    4.5726 H         1 <0>         0.1285
     52 H16        -6.5926    5.9277    4.7122 H         1 <0>         0.1218
     53 H17        -7.5882    7.0084    2.7394 H         1 <0>         0.1181
     54 H18        -6.3524    7.0939    0.6142 H         1 <0>         0.1197
     55 H19        -4.1056    6.1088    0.4514 H         1 <0>         0.1228
     56 H20        -2.5769    0.4838    3.1872 H         1 <0>         0.0904
     57 H21        -4.4375    0.3340    0.7721 H         1 <0>         0.0425
     58 H22        -4.4853    1.5788    2.0436 H         1 <0>         0.0495
     59 H23        -3.0747    1.4629    0.9641 H         1 <0>         0.0661
     60 H24        -4.8934   -0.1903    3.7600 H         1 <0>         0.0551
     61 H25        -4.8456   -1.4350    2.4886 H         1 <0>         0.0501
     62 H26        -3.7736   -1.5665    3.9034 H         1 <0>         0.0508
@<TRIPOS>BOND
     1    1    2 1
     2    1   38 1
     3    1   39 1
     4    1   40 1
     5    2    7 ar
     6    2    3 ar
     7    3    4 ar
     8    3   41 1
     9    4    5 ar
    10    4   42 1
    11    5    6 ar
    12    5   43 1
    13    6    7 ar
    14    6   35 1
    15    7    8 1
    16    8    9 am
    17    8   44 1
    18    9   10 2
    19    9   11 1
    20   11   12 1
    21   11   13 2
    22   13   14 1
    23   13   25 1
    24   14   15 1
    25   14   24 1
    26   14   16 1
    27   16   21 ar
    28   16   17 ar
    29   17   18 ar
    30   17   45 1
    31   18   19 ar
    32   18   46 1
    33   19   20 ar
    34   19   47 1
    35   20   21 ar
    36   20   48 1
    37   21   22 1
    38   22   23 2
    39   22   24 1
    40   25   26 2
    41   25   27 1
    42   27   28 2
    43   27   49 1
    44   28   29 1
    45   28   50 1
    46   29   34 ar
    47   29   30 ar
    48   30   31 ar
    49   30   51 1
    50   31   32 ar
    51   31   52 1
    52   32   33 ar
    53   32   53 1
    54   33   34 ar
    55   33   54 1
    56   34   55 1
    57   35   36 1
    58   35   37 1
    59   35   56 1
    60   36   57 1
    61   36   58 1
    62   36   59 1
    63   37   60 1
    64   37   61 1
    65   37   62 1
@<TRIPOS>MOLECULE
ZINC35692996
   50    53     0     0     0
SMALL
USER_CHARGES

@<TRIPOS>ATOM
      1 C1          0.5761   -1.5049   -3.4003 C.3       1 <0>        -0.1502
      2 C2          0.2055   -1.5310   -1.9161 C.3       1 <0>         0.0619
      3 O1         -1.1316   -2.0128   -1.7674 O.3       1 <0>        -0.3495
      4 C3         -1.6167   -2.0979   -0.5089 C.2       1 <0>         0.5530
      5 O2         -0.9201   -1.7707    0.4361 O.2       1 <0>        -0.4945
      6 C4         -2.9196   -2.5620   -0.2908 C.2       1 <0>        -0.3008
      7 C5         -3.2172   -3.9098   -0.3543 C.2       1 <0>         0.1682
      8 N1         -4.4530   -4.3340   -0.1459 N.2       1 <0>        -0.5757
      9 C6         -5.4784   -3.5550    0.1307 C.2       1 <0>         0.3190
     10 N2         -5.3956   -2.1949    0.2388 N.pl3     1 <0>        -0.5166
     11 C7         -4.0466   -1.6053    0.0285 C.3       1 <0>         0.2664
     12 H1         -4.1208   -0.8892   -0.7900 H         1 <0>         0.0928
     13 C8         -3.6695   -0.8428    1.2724 C.ar      1 <0>        -0.0727
     14 C9         -4.0530   -1.3131    2.5145 C.ar      1 <0>        -0.0714
     15 C10        -3.7072   -0.6139    3.6555 C.ar      1 <0>        -0.1097
     16 C11        -2.9775    0.5562    3.5554 C.ar      1 <0>        -0.1063
     17 C12        -2.5935    1.0274    2.3143 C.ar      1 <0>        -0.1094
     18 C13        -2.9345    0.3248    1.1720 C.ar      1 <0>        -0.0094
     19 Cl1        -2.4468    0.9126   -0.3870 Cl        1 <0>        -0.0740
     20 C14        -6.5617   -1.5174    0.5347 C.2       1 <0>         0.2314
     21 C15        -7.6878   -2.2474    0.6936 C.2       1 <0>        -0.2994
     22 S1         -7.0938   -3.9051    0.4219 S.3       1 <0>         0.1580
     23 C16        -6.5777   -0.0540    0.6726 C.2       1 <0>        -0.4639
     24 C17        -7.7466    0.5940    0.8390 C.2       1 <0>         0.5055
     25 O3         -8.8955   -0.1088    0.9909 O.3       1 <0>        -0.6982
     26 N3         -7.7746    1.9783    0.8549 N.pl3     1 <0>        -0.7238
     27 C18        -9.0258    2.6823    1.1466 C.3       1 <0>         0.1205
     28 C19        -9.4304    3.8217    0.2090 C.3       1 <0>        -0.2110
     29 C20        -8.9260    4.1340    1.6193 C.3       1 <0>        -0.2069
     30 C21        -2.1271   -4.9032   -0.6635 C.3       1 <0>         0.5226
     31 F1         -0.8910   -4.2482   -0.6831 F         1 <0>        -0.1660
     32 F2         -2.1115   -5.8993    0.3188 F         1 <0>        -0.1646
     33 F3         -2.3666   -5.4845   -1.9133 F         1 <0>        -0.1641
     34 H2          1.5960   -1.1374   -3.5137 H         1 <0>         0.0749
     35 H3          0.5053   -2.5124   -3.8102 H         1 <0>         0.0654
     36 H4         -0.1089   -0.8464   -3.9343 H         1 <0>         0.0643
     37 H5          0.8905   -2.1895   -1.3820 H         1 <0>         0.0641
     38 H6          0.2763   -0.5235   -1.5062 H         1 <0>         0.0633
     39 H7         -4.6233   -2.2268    2.5932 H         1 <0>         0.1179
     40 H8         -4.0074   -0.9815    4.6256 H         1 <0>         0.1262
     41 H9         -2.7079    1.1023    4.4473 H         1 <0>         0.1285
     42 H10        -2.0238    1.9416    2.2362 H         1 <0>         0.1296
     43 H11        -8.6881   -1.9128    0.9254 H         1 <0>         0.2408
     44 H12        -5.6521    0.5015    0.6405 H         1 <0>         0.0868
     45 H13        -6.9658    2.4819    0.6730 H         1 <0>         0.3869
     46 H14        -9.8229    2.0696    1.5678 H         1 <0>         0.1295
     47 H15        -8.7657    4.0475   -0.6248 H         1 <0>         0.0880
     48 H16       -10.4939    3.9586    0.0131 H         1 <0>         0.0915
     49 H17        -9.6575    4.4765    2.3512 H         1 <0>         0.0932
     50 H18        -7.9293    4.5653    1.7133 H         1 <0>         0.0879
@<TRIPOS>BOND
     1    1    2 1
     2    1   34 1
     3    1   35 1
     4    1   36 1
     5    2    3 1
     6    2   37 1
     7    2   38 1
     8    3    4 1
     9    4    5 2
    10    4    6 1
    11    6   11 1
    12    6    7 2
    13    7    8 1
    14    7   30 1
    15    8    9 2
    16    9   22 1
    17    9   10 1
    18   10   11 1
    19   10   20 1
    20   11   12 1
    21   11   13 1
    22   13   18 ar
    23   13   14 ar
    24   14   15 ar
    25   14   39 1
    26   15   16 ar
    27   15   40 1
    28   16   17 ar
    29   16   41 1
    30   17   18 ar
    31   17   42 1
    32   18   19 1
    33   20   21 2
    34   20   23 1
    35   21   22 1
    36   21   43 1
    37   23   24 2
    38   23   44 1
    39   24   25 1
    40   24   26 1
    41   26   27 1
    42   26   45 1
    43   27   29 1
    44   27   28 1
    45   27   46 1
    46   28   29 1
    47   28   47 1
    48   28   48 1
    49   29   49 1
    50   29   50 1
    51   30   31 1
    52   30   32 1
    53   30   33 1
@<TRIPOS>MOLECULE
ZINC40147995
   58    62     0     0     0
SMALL
USER_CHARGES

@<TRIPOS>ATOM
      1 C1         -1.9649   -1.7152   -3.5285 C.3       1 <0>         0.0269
      2 O1         -1.3000   -2.1132   -2.3278 O.3       1 <0>        -0.3072
      3 C2         -1.8595   -1.7190   -1.1526 C.ar      1 <0>         0.0913
      4 C3         -3.0257   -0.9707   -1.1553 C.ar      1 <0>        -0.1490
      5 C4         -3.5934   -0.5712    0.0402 C.ar      1 <0>        -0.1167
      6 C5         -2.9998   -0.9162    1.2402 C.ar      1 <0>        -0.0744
      7 C6         -1.8359   -1.6621    1.2499 C.ar      1 <0>        -0.1716
      8 C7         -1.2651   -2.0710    0.0553 C.ar      1 <0>         0.1088
      9 O2         -0.1235   -2.8100    0.0633 O.3       1 <0>        -0.2985
     10 C8          0.4306   -3.1342    1.3400 C.3       1 <0>         0.0972
     11 C9          1.6833   -3.9504    1.1513 C.ar      1 <0>        -0.0896
     12 C10         1.6067   -5.3291    1.0863 C.ar      1 <0>        -0.0939
     13 C11         2.7558   -6.0778    0.9133 C.ar      1 <0>        -0.1242
     14 C12         3.9814   -5.4478    0.8047 C.ar      1 <0>        -0.1132
     15 C13         4.0579   -4.0690    0.8687 C.ar      1 <0>        -0.1250
     16 C14         2.9083   -3.3201    1.0375 C.ar      1 <0>        -0.0949
     17 C15        -4.8618    0.2425    0.0354 C.3       1 <0>         0.4305
     18 H1         -5.1202    0.5050   -0.9905 H         1 <0>         0.1048
     19 N1         -4.6587    1.4653    0.8145 N.am      1 <0>        -0.7413
     20 C16        -4.9102    1.4851    2.1386 C.2       1 <0>         0.5967
     21 O3         -4.6987    2.4939    2.7870 O.2       1 <0>        -0.5635
     22 C17        -5.4398    0.2863    2.7930 C.2       1 <0>        -0.3300
     23 C18        -5.9689   -0.7335    1.9847 C.2       1 <0>         0.4533
     24 N2         -5.9489   -0.5453    0.6260 N.pl3     1 <0>        -0.5694
     25 C19        -6.9459   -1.0952   -0.1800 C.ar      1 <0>         0.1691
     26 C20        -6.8373   -2.3927   -0.6329 C.ar      1 <0>        -0.0731
     27 C21        -7.8262   -2.9506   -1.4372 C.ar      1 <0>        -0.1066
     28 C22        -8.9259   -2.2335   -1.7989 C.ar      1 <0>        -0.1082
     29 C23        -9.0752   -0.9077   -1.3580 C.ar      1 <0>        -0.0481
     30 C24        -8.0777   -0.3302   -0.5342 C.ar      1 <0>        -0.0437
     31 C25        -8.2305    0.9928   -0.0910 C.ar      1 <0>        -0.0932
     32 C26        -9.3355    1.7014   -0.4527 C.ar      1 <0>        -0.1212
     33 C27       -10.3200    1.1326   -1.2583 C.ar      1 <0>        -0.1184
     34 C28       -10.1995   -0.1436   -1.7160 C.ar      1 <0>        -0.1093
     35 S1         -6.6347   -2.2037    2.6919 S.3       1 <0>        -0.7774
     36 C29        -5.4182    0.1573    4.2190 C.1       1 <0>         0.3354
     37 N3         -5.4011    0.0549    5.3502 N.1       1 <0>        -0.4951
     38 H2         -1.4158   -2.0942   -4.3905 H         1 <0>         0.0964
     39 H3         -2.9766   -2.1208   -3.5352 H         1 <0>         0.0543
     40 H4         -2.0093   -0.6272   -3.5757 H         1 <0>         0.0529
     41 H5         -3.4911   -0.6993   -2.0914 H         1 <0>         0.1342
     42 H6         -3.4461   -0.6019    2.1721 H         1 <0>         0.1403
     43 H7         -1.3740   -1.9300    2.1887 H         1 <0>         0.1343
     44 H8          0.6725   -2.2158    1.8749 H         1 <0>         0.0715
     45 H9         -0.2947   -3.7095    1.9154 H         1 <0>         0.0730
     46 H10         0.6491   -5.8213    1.1712 H         1 <0>         0.1252
     47 H11         2.6960   -7.1550    0.8632 H         1 <0>         0.1240
     48 H12         4.8792   -6.0328    0.6702 H         1 <0>         0.1220
     49 H13         5.0155   -3.5768    0.7843 H         1 <0>         0.1235
     50 H14         2.9677   -2.2427    1.0838 H         1 <0>         0.1242
     51 H15        -4.3400    2.2685    0.3738 H         1 <0>         0.4038
     52 H16        -5.9747   -2.9827   -0.3607 H         1 <0>         0.1280
     53 H17        -7.7197   -3.9690   -1.7807 H         1 <0>         0.1234
     54 H18        -9.6827   -2.6834   -2.4244 H         1 <0>         0.1242
     55 H19        -7.4756    1.4463    0.5342 H         1 <0>         0.1253
     56 H20        -9.4507    2.7191   -0.1100 H         1 <0>         0.1195
     57 H21       -11.1869    1.7160   -1.5311 H         1 <0>         0.1186
     58 H22       -10.9701   -0.5713   -2.3403 H         1 <0>         0.1239
@<TRIPOS>BOND
     1    1    2 1
     2    1   38 1
     3    1   39 1
     4    1   40 1
     5    2    3 1
     6    3    8 ar
     7    3    4 ar
     8    4    5 ar
     9    4   41 1
    10    5    6 ar
    11    5   17 1
    12    6    7 ar
    13    6   42 1
    14    7    8 ar
    15    7   43 1
    16    8    9 1
    17    9   10 1
    18   10   11 1
    19   10   44 1
    20   10   45 1
    21   11   16 ar
    22   11   12 ar
    23   12   13 ar
    24   12   46 1
    25   13   14 ar
    26   13   47 1
    27   14   15 ar
    28   14   48 1
    29   15   16 ar
    30   15   49 1
    31   16   50 1
    32   17   18 1
    33   17   24 1
    34   17   19 1
    35   19   20 am
    36   19   51 1
    37   20   21 2
    38   20   22 1
    39   22   23 2
    40   22   36 1
    41   23   24 1
    42   23   35 1
    43   24   25 1
    44   25   30 ar
    45   25   26 ar
    46   26   27 ar
    47   26   52 1
    48   27   28 ar
    49   27   53 1
    50   28   29 ar
    51   28   54 1
    52   29   34 ar
    53   29   30 ar
    54   30   31 ar
    55   31   32 ar
    56   31   55 1
    57   32   33 ar
    58   32   56 1
    59   33   34 ar
    60   33   57 1
    61   34   58 1
    62   36   37 3
@<TRIPOS>MOLECULE
ZINC02311251
   61    64     0     0     0
SMALL
USER_CHARGES

@<TRIPOS>ATOM
      1 C1         -0.0307    1.4721   -0.0219 C.3       1 <0>        -0.1518
      2 C2          0.0006   -0.0575   -0.0305 C.3       1 <0>         0.0560
      3 O1          0.6902   -0.5264    1.1300 O.3       1 <0>        -0.3023
      4 C3          0.8076   -1.8724    1.2761 C.ar      1 <0>         0.1530
      5 C4          0.2751   -2.7244    0.3191 C.ar      1 <0>        -0.2118
      6 C5          0.3962   -4.0921    0.4697 C.ar      1 <0>        -0.0779
      7 C6          1.0475   -4.6124    1.5731 C.ar      1 <0>        -0.1621
      8 C7          1.5784   -3.7657    2.5283 C.ar      1 <0>        -0.0675
      9 C8          1.4650   -2.3967    2.3794 C.ar      1 <0>        -0.1080
     10 C9          2.0495   -1.4742    3.4178 C.3       1 <0>         0.0934
     11 H1          1.8552   -0.4415    3.1280 H         1 <0>         0.1062
     12 C10         3.5318   -1.6936    3.4921 C.2       1 <0>        -0.0835
     13 C11         4.0849   -2.4133    4.5048 C.2       1 <0>         0.1435
     14 N1          3.2848   -2.9477    5.4880 N.pl3     1 <0>        -0.6399
     15 C12         2.0260   -2.4560    5.7038 C.2       1 <0>         0.2103
     16 C13         1.3921   -1.7466    4.7472 C.2       1 <0>        -0.2566
     17 C14         0.0978   -1.2411    4.9603 C.2       1 <0>         0.3974
     18 O2         -0.4408   -0.5930    4.0848 O.2       1 <0>        -0.4522
     19 C15        -0.6330   -1.4879    6.2516 C.3       1 <0>        -0.1686
     20 C16        -0.1438   -2.8082    6.8564 C.3       1 <0>        -0.1114
     21 C17         1.3710   -2.7243    7.0365 C.3       1 <0>        -0.0944
     22 S1          5.8285   -2.6621    4.5574 S.3       1 <0>         0.0303
     23 C18         6.0851   -3.6560    6.0530 C.3       1 <0>        -0.1743
     24 C19         7.5550   -3.9439    6.2188 C.2       1 <0>         0.5339
     25 O3          8.3511   -3.5204    5.4077 O.2       1 <0>        -0.4857
     26 N2          7.9849   -4.6721    7.2682 N.am      1 <0>        -0.6600
     27 C20         9.3324   -5.0375    7.3612 C.ar      1 <0>         0.1554
     28 C21        10.1095   -5.1280    6.2138 C.ar      1 <0>        -0.1195
     29 C22        11.4402   -5.4887    6.3092 C.ar      1 <0>        -0.0186
     30 C23        11.9978   -5.7599    7.5468 C.ar      1 <0>        -0.1204
     31 C24        11.2258   -5.6708    8.6901 C.ar      1 <0>        -0.0864
     32 C25         9.8967   -5.3048    8.6015 C.ar      1 <0>        -0.1092
     33 C26         9.0581   -5.2020    9.8493 C.3       1 <0>        -0.1173
     34 Cl1        12.4130   -5.6022    4.8758 Cl        1 <0>        -0.0599
     35 C27         4.3779   -1.1365    2.4800 C.1       1 <0>         0.2539
     36 N3          5.0491   -0.6945    1.6771 N.1       1 <0>        -0.4007
     37 H2          0.9893    1.8564   -0.0252 H         1 <0>         0.0648
     38 H3         -0.5566    1.8297   -0.9071 H         1 <0>         0.0770
     39 H4         -0.5470    1.8199    0.8729 H         1 <0>         0.0686
     40 H5         -1.0194   -0.4419   -0.0271 H         1 <0>         0.0613
     41 H6          0.5170   -0.4053   -0.9252 H         1 <0>         0.0587
     42 H7         -0.2339   -2.3185   -0.5426 H         1 <0>         0.1269
     43 H8         -0.0183   -4.7556   -0.2747 H         1 <0>         0.1231
     44 H9          1.1411   -5.6821    1.6891 H         1 <0>         0.1212
     45 H10         2.0863   -4.1745    3.3893 H         1 <0>         0.1184
     46 H11         3.6156   -3.6788    6.0330 H         1 <0>         0.4140
     47 H12        -0.4325   -0.6721    6.9461 H         1 <0>         0.1004
     48 H13        -1.7040   -1.5497    6.0586 H         1 <0>         0.0971
     49 H14        -0.6194   -2.9662    7.8243 H         1 <0>         0.0871
     50 H15        -0.3890   -3.6315    6.1855 H         1 <0>         0.0769
     51 H16         1.7394   -3.6681    7.4385 H         1 <0>         0.0878
     52 H17         1.6119   -1.9171    7.7283 H         1 <0>         0.1025
     53 H18         5.7224   -3.1060    6.9214 H         1 <0>         0.1285
     54 H19         5.5388   -4.5950    5.9635 H         1 <0>         0.1270
     55 H20         7.3602   -4.9429    7.9591 H         1 <0>         0.4158
     56 H21         9.6743   -4.9171    5.2481 H         1 <0>         0.1568
     57 H22        13.0378   -6.0419    7.6192 H         1 <0>         0.1369
     58 H23        11.6635   -5.8837    9.6542 H         1 <0>         0.1387
     59 H24         8.5945   -6.1666   10.0560 H         1 <0>         0.0760
     60 H25         9.6905   -4.9155   10.6896 H         1 <0>         0.0775
     61 H26         8.2827   -4.4497    9.7051 H         1 <0>         0.0638
@<TRIPOS>BOND
     1    1    2 1
     2    1   37 1
     3    1   38 1
     4    1   39 1
     5    2    3 1
     6    2   40 1
     7    2   41 1
     8    3    4 1
     9    4    9 ar
    10    4    5 ar
    11    5    6 ar
    12    5   42 1
    13    6    7 ar
    14    6   43 1
    15    7    8 ar
    16    7   44 1
    17    8    9 ar
    18    8   45 1
    19    9   10 1
    20   10   11 1
    21   10   16 1
    22   10   12 1
    23   12   13 2
    24   12   35 1
    25   13   14 1
    26   13   22 1
    27   14   15 1
    28   14   46 1
    29   15   21 1
    30   15   16 2
    31   16   17 1
    32   17   18 2
    33   17   19 1
    34   19   20 1
    35   19   47 1
    36   19   48 1
    37   20   21 1
    38   20   49 1
    39   20   50 1
    40   21   51 1
    41   21   52 1
    42   22   23 1
    43   23   24 1
    44   23   53 1
    45   23   54 1
    46   24   25 2
    47   24   26 am
    48   26   27 1
    49   26   55 1
    50   27   32 ar
    51   27   28 ar
    52   28   29 ar
    53   28   56 1
    54   29   30 ar
    55   29   34 1
    56   30   31 ar
    57   30   57 1
    58   31   32 ar
    59   31   58 1
    60   32   33 1
    61   33   59 1
    62   33   60 1
    63   33   61 1
    64   35   36 3
@<TRIPOS>MOLECULE
ZINC12417202
   54    57     0     0     0
SMALL
USER_CHARGES
(2S,3R,4S)-6-bromo-4-(3,4-dimethoxyphenyl)-2-(4-fluorophenyl)-3-methyl-1,2,3,4-tetrahydroquinoline-8-carboxylic acid
@<TRIPOS>ATOM
      1 C1         -2.0353    6.2064    1.8887 C.3       1 <0>        -0.1586
      2 C2         -2.3590    6.0822    0.3985 C.3       1 <0>        -0.1106
      3 H1         -3.2363    6.6833    0.1597 H         1 <0>         0.0850
      4 C3         -1.1617    6.5579   -0.4340 C.3       1 <0>         0.1205
      5 H2         -1.3335    6.3288   -1.4857 H         1 <0>         0.1035
      6 N1          0.0396    5.8637    0.0337 N.pl3     1 <0>        -0.5879
      7 C4         -0.0974    4.4849    0.0493 C.ar      1 <0>         0.1689
      8 C5         -1.3263    3.8480    0.0668 C.ar      1 <0>        -0.1418
      9 C6         -1.3882    2.4650    0.0967 C.ar      1 <0>        -0.0634
     10 C7         -0.2323    1.7027    0.1161 C.ar      1 <0>        -0.1227
     11 C8          1.0010    2.3171    0.0923 C.ar      1 <0>        -0.0316
     12 C9          1.0810    3.7097    0.0573 C.ar      1 <0>        -0.1212
     13 C10         2.3969    4.3708    0.0293 C.2       1 <0>         0.4902
     14 O1          2.4671    5.5836   -0.0012 O.co2     1 <0>        -0.6010
     15 Br1        -0.3464   -0.1841    0.1676 Br        1 <0>        -0.0737
     16 C11        -2.6241    4.6165    0.0466 C.3       1 <0>         0.0113
     17 H3         -3.3116    4.1870    0.7753 H         1 <0>         0.0905
     18 C12        -3.2347    4.5339   -1.3286 C.ar      1 <0>        -0.0658
     19 C13        -2.4268    4.6117   -2.4478 C.ar      1 <0>        -0.1020
     20 C14        -2.9821    4.5365   -3.7116 C.ar      1 <0>        -0.1669
     21 C15        -4.3513    4.3822   -3.8586 C.ar      1 <0>         0.0947
     22 C16        -5.1644    4.3033   -2.7321 C.ar      1 <0>         0.0973
     23 C17        -4.6008    4.3747   -1.4683 C.ar      1 <0>        -0.1661
     24 O2         -6.5087    4.1519   -2.8713 O.3       1 <0>        -0.3084
     25 C18        -7.2810    4.0784   -1.6711 C.3       1 <0>         0.0269
     26 O3         -4.8992    4.3084   -5.1011 O.3       1 <0>        -0.3094
     27 C19        -4.0039    4.3970   -6.2113 C.3       1 <0>         0.0261
     28 C20        -0.9854    8.0447   -0.2626 C.ar      1 <0>        -0.0714
     29 C21        -0.3588    8.5404    0.8656 C.ar      1 <0>        -0.0733
     30 C22        -0.1916    9.9034    1.0212 C.ar      1 <0>        -0.1483
     31 C23        -0.6616   10.7731    0.0518 C.ar      1 <0>         0.0905
     32 C24        -1.2941   10.2758   -1.0750 C.ar      1 <0>        -0.1526
     33 C25        -1.4555    8.9121   -1.2309 C.ar      1 <0>        -0.0815
     34 F1         -0.5035   12.1060    0.2055 F         1 <0>        -0.1443
     35 H4         -1.1494    5.6144    2.1187 H         1 <0>         0.0584
     36 H5         -1.8474    7.2517    2.1338 H         1 <0>         0.0656
     37 H6         -2.8785    5.8415    2.4753 H         1 <0>         0.0612
     38 H7          0.3280    6.2086    0.9370 H         1 <0>         0.3665
     39 H8         -2.3504    1.9746    0.1099 H         1 <0>         0.1211
     40 H9          1.9027    1.7226    0.1004 H         1 <0>         0.1409
     41 H10        -1.3595    4.7320   -2.3346 H         1 <0>         0.1328
     42 H11        -2.3488    4.5975   -4.5842 H         1 <0>         0.1348
     43 H12        -5.2293    4.3100   -0.5923 H         1 <0>         0.1335
     44 H13        -8.3344    3.9582   -1.9238 H         1 <0>         0.0975
     45 H14        -6.9501    3.2260   -1.0778 H         1 <0>         0.0540
     46 H15        -7.1474    4.9949   -1.0964 H         1 <0>         0.0537
     47 H16        -3.4785    5.3515   -6.1791 H         1 <0>         0.0546
     48 H17        -3.2811    3.5826   -6.1611 H         1 <0>         0.0551
     49 H18        -4.5690    4.3245   -7.1405 H         1 <0>         0.0980
     50 H19         0.0038    7.8620    1.6237 H         1 <0>         0.1319
     51 H20         0.3016   10.2902    1.9007 H         1 <0>         0.1345
     52 H21        -1.6614   10.9532   -1.8317 H         1 <0>         0.1327
     53 H22        -1.9488    8.5240   -2.1098 H         1 <0>         0.1309
     54 O4          3.5232    3.6306    0.0375 O.co2     1 <0>        -0.7608
@<TRIPOS>BOND
     1    1    2 1
     2    1   35 1
     3    1   36 1
     4    1   37 1
     5    2    3 1
     6    2   16 1
     7    2    4 1
     8    4    5 1
     9    4    6 1
    10    4   28 1
    11    6    7 1
    12    6   38 1
    13    7   12 ar
    14    7    8 ar
    15    8    9 ar
    16    8   16 1
    17    9   10 ar
    18    9   39 1
    19   10   11 ar
    20   10   15 1
    21   11   12 ar
    22   11   40 1
    23   12   13 1
    24   13   14 2
    25   13   54 1
    26   16   17 1
    27   16   18 1
    28   18   23 ar
    29   18   19 ar
    30   19   20 ar
    31   19   41 1
    32   20   21 ar
    33   20   42 1
    34   21   22 ar
    35   21   26 1
    36   22   23 ar
    37   22   24 1
    38   23   43 1
    39   24   25 1
    40   25   44 1
    41   25   45 1
    42   25   46 1
    43   26   27 1
    44   27   47 1
    45   27   48 1
    46   27   49 1
    47   28   33 ar
    48   28   29 ar
    49   29   30 ar
    50   29   50 1
    51   30   31 ar
    52   30   51 1
    53   31   32 ar
    54   31   34 1
    55   32   33 ar
    56   32   52 1
    57   33   53 1
@<TRIPOS>MOLECULE
ZINC25150250
   47    49     0     0     0
SMALL
USER_CHARGES
N-[4-chloro-3-[(2-chlorophenyl)sulfamoyl]phenyl]-2-ethylsulfanyl-benzamide
@<TRIPOS>ATOM
      1 C1          9.2191    1.5634    2.4291 C.3       1 <0>        -0.1364
      2 C2          8.6431    1.8738    3.8121 C.3       1 <0>        -0.1672
      3 S1          6.9037    2.3617    3.6471 S.3       1 <0>         0.0090
      4 C3          6.3918    2.6816    5.3025 C.ar      1 <0>        -0.0409
      5 C4          7.2895    2.5303    6.3534 C.ar      1 <0>        -0.1458
      6 C5          6.8864    2.7823    7.6480 C.ar      1 <0>        -0.0710
      7 C6          5.5870    3.1870    7.9129 C.ar      1 <0>        -0.1400
      8 C7          4.6845    3.3477    6.8849 C.ar      1 <0>        -0.0630
      9 C8          5.0750    3.0914    5.5677 C.ar      1 <0>        -0.1264
     10 C9          4.1129    3.2558    4.4637 C.2       1 <0>         0.5484
     11 O1          4.4583    3.0365    3.3183 O.2       1 <0>        -0.4833
     12 N1          2.8502    3.6492    4.7231 N.am      1 <0>        -0.6775
     13 C10         1.9069    3.6983    3.6912 C.ar      1 <0>         0.1266
     14 C11         0.9130    4.6685    3.7027 C.ar      1 <0>        -0.1038
     15 C12        -0.0166    4.7150    2.6827 C.ar      1 <0>        -0.1172
     16 C13         0.0447    3.7993    1.6466 C.ar      1 <0>         0.0386
     17 C14         1.0303    2.8283    1.6356 C.ar      1 <0>        -0.6332
     18 C15         1.9627    2.7773    2.6534 C.ar      1 <0>        -0.0252
     19 S2          1.1004    1.6601    0.3184 S.o2      1 <0>         2.5792
     20 O2          2.1669    0.7710    0.6204 O.2       1 <0>        -1.0230
     21 O3          1.0500    2.4067   -0.8896 O.2       1 <0>        -0.9770
     22 N2         -0.2927    0.7670    0.3813 N.2       1 <0>        -1.0168
     23 C16        -0.5189   -0.1001    1.4537 C.ar      1 <0>         0.2674
     24 C17        -0.0194    0.2053    2.7131 C.ar      1 <0>        -0.2446
     25 C18        -0.2493   -0.6511    3.7720 C.ar      1 <0>        -0.0704
     26 C19        -0.9666   -1.8174    3.5776 C.ar      1 <0>        -0.2066
     27 C20        -1.4612   -2.1278    2.3242 C.ar      1 <0>        -0.0763
     28 C21        -1.2395   -1.2729    1.2612 C.ar      1 <0>        -0.0860
     29 Cl1        -1.8597   -1.6636   -0.3125 Cl        1 <0>        -0.0887
     30 Cl2        -1.1210    3.8653    0.3618 Cl        1 <0>        -0.0363
     31 H1         10.2738    1.2676    2.5292 H         1 <0>         0.0701
     32 H2          9.1480    2.4581    1.7931 H         1 <0>         0.0658
     33 H3          8.6496    0.7414    1.9708 H         1 <0>         0.0686
     34 H4          8.7142    0.9791    4.4481 H         1 <0>         0.0836
     35 H5          9.2126    2.6957    4.2705 H         1 <0>         0.0820
     36 H6          8.3035    2.2155    6.1557 H         1 <0>         0.1296
     37 H7          7.5876    2.6641    8.4608 H         1 <0>         0.1291
     38 H8          5.2822    3.3820    8.9304 H         1 <0>         0.1309
     39 H9          3.6749    3.6675    7.0969 H         1 <0>         0.1301
     40 H10         2.5613    3.9317    5.7462 H         1 <0>         0.4283
     41 H11         0.8671    5.3858    4.5089 H         1 <0>         0.1329
     42 H12        -0.7896    5.4692    2.6912 H         1 <0>         0.1372
     43 H13         2.7343    2.0217    2.6423 H         1 <0>         0.1558
     44 H14         0.5450    1.1135    2.8651 H         1 <0>         0.1155
     45 H15         0.1358   -0.4120    4.7523 H         1 <0>         0.1039
     46 H16        -1.1405   -2.4874    4.4066 H         1 <0>         0.1094
     47 H17        -2.0210   -3.0394    2.1758 H         1 <0>         0.1145
@<TRIPOS>BOND
     1    1    2 1
     2    1   31 1
     3    1   32 1
     4    1   33 1
     5    2    3 1
     6    2   34 1
     7    2   35 1
     8    3    4 1
     9    4    9 ar
    10    4    5 ar
    11    5    6 ar
    12    5   36 1
    13    6    7 ar
    14    6   37 1
    15    7    8 ar
    16    7   38 1
    17    8    9 ar
    18    8   39 1
    19    9   10 1
    20   10   11 2
    21   10   12 am
    22   12   13 1
    23   12   40 1
    24   13   18 ar
    25   13   14 ar
    26   14   15 ar
    27   14   41 1
    28   15   16 ar
    29   15   42 1
    30   16   17 ar
    31   16   30 1
    32   17   18 ar
    33   17   19 1
    34   18   43 1
    35   19   20 2
    36   19   21 2
    37   19   22 1
    38   22   23 1
    39   23   28 ar
    40   23   24 ar
    41   24   25 ar
    42   24   44 1
    43   25   26 ar
    44   25   45 1
    45   26   27 ar
    46   26   46 1
    47   27   28 ar
    48   27   47 1
    49   28   29 1
@<TRIPOS>MOLECULE
ZINC35698230
   60    63     0     0     0
SMALL
USER_CHARGES

@<TRIPOS>ATOM
      1 C1         -2.6092    1.4544   -1.6473 C.3       1 <0>        -0.1654
      2 C2         -1.1072    1.5131   -1.3619 C.3       1 <0>         0.1125
      3 N1         -0.3722    0.9493   -2.4969 N.am      1 <0>        -0.6138
      4 C3          0.0520    1.8168   -3.5986 C.3       1 <0>         0.1090
      5 C4          1.3869    2.4752   -3.2445 C.3       1 <0>        -0.1692
      6 C5         -0.0862   -0.3674   -2.5275 C.2       1 <0>         0.6089
      7 O1         -0.5110   -1.1040   -1.6536 O.2       1 <0>        -0.5368
      8 C6          0.7004   -0.8905   -3.5649 C.2       1 <0>        -0.3718
      9 C7          0.1531   -1.1784   -4.7986 C.2       1 <0>         0.2279
     10 N2          0.9069   -1.6717   -5.7687 N.2       1 <0>        -0.5945
     11 C8          2.1945   -1.9264   -5.6636 C.2       1 <0>         0.3243
     12 N3          2.9241   -1.7116   -4.5276 N.pl3     1 <0>        -0.5246
     13 C9          2.1773   -1.1515   -3.3699 C.3       1 <0>         0.2716
     14 H1          2.6494   -0.2113   -3.0850 H         1 <0>         0.0691
     15 C10         2.3308   -2.1098   -2.2170 C.ar      1 <0>        -0.0594
     16 C11         2.5826   -1.6272   -0.9463 C.ar      1 <0>        -0.0875
     17 C12         2.7235   -2.5056    0.1115 C.ar      1 <0>        -0.1072
     18 C13         2.6124   -3.8681   -0.1016 C.ar      1 <0>        -0.0329
     19 C14         2.3603   -4.3505   -1.3736 C.ar      1 <0>        -0.1055
     20 C15         2.2140   -3.4708   -2.4296 C.ar      1 <0>        -0.0715
     21 Cl1         2.7898   -4.9720    1.2264 Cl        1 <0>        -0.0862
     22 C16         4.2671   -2.0289   -4.5759 C.2       1 <0>         0.2366
     23 C17         4.7530   -2.5241   -5.7353 C.2       1 <0>        -0.3076
     24 S1          3.2997   -2.5429   -6.7660 S.3       1 <0>         0.1132
     25 C18         5.1375   -1.8344   -3.4074 C.2       1 <0>        -0.4714
     26 C19         6.4677   -2.0126   -3.5213 C.2       1 <0>         0.5011
     27 O2          7.0198   -2.2344   -4.7391 O.3       1 <0>        -0.7050
     28 N4          7.2711   -1.9691   -2.3944 N.pl3     1 <0>        -0.7543
     29 C20         8.7275   -2.0526   -2.5295 C.3       1 <0>         0.1714
     30 C21         9.3662   -2.1072   -1.1402 C.3       1 <0>        -0.1619
     31 C22        10.2789   -0.9476   -0.7362 C.3       1 <0>        -0.1808
     32 C23        10.8802   -2.3151   -1.0665 C.3       1 <0>        -0.1763
     33 C24        -1.3130   -0.9300   -5.0431 C.3       1 <0>        -0.1012
     34 H2         -2.8311    2.0301   -2.5459 H         1 <0>         0.0528
     35 H3         -2.9105    0.4176   -1.7964 H         1 <0>         0.0595
     36 H4         -3.1561    1.8739   -0.8028 H         1 <0>         0.0603
     37 H5         -0.8059    2.5499   -1.2128 H         1 <0>         0.0703
     38 H6         -0.8854    0.9374   -0.4633 H         1 <0>         0.0793
     39 H7          0.1691    1.2224   -4.5047 H         1 <0>         0.0833
     40 H8         -0.7006    2.5877   -3.7645 H         1 <0>         0.0704
     41 H9          1.2934    2.9966   -2.2918 H         1 <0>         0.0549
     42 H10         2.1596    1.7104   -3.1658 H         1 <0>         0.0581
     43 H11         1.6587    3.1875   -4.0234 H         1 <0>         0.0635
     44 H12         2.6697   -0.5636   -0.7801 H         1 <0>         0.1195
     45 H13         2.9206   -2.1285    1.1041 H         1 <0>         0.1266
     46 H14         2.2738   -5.4139   -1.5406 H         1 <0>         0.1265
     47 H15         2.0126   -3.8469   -3.4217 H         1 <0>         0.1148
     48 H16         5.7607   -2.8299   -5.9750 H         1 <0>         0.2288
     49 H17         4.7104   -1.5486   -2.4575 H         1 <0>         0.0854
     50 H18         6.8697   -1.8833   -1.5156 H         1 <0>         0.3846
     51 H19         8.9898   -2.9526   -3.0856 H         1 <0>         0.0585
     52 H20         9.0937   -1.1758   -3.0635 H         1 <0>         0.0469
     53 H21         8.7569   -2.5638   -0.3603 H         1 <0>         0.1042
     54 H22        10.4243   -0.1458   -1.4602 H         1 <0>         0.0941
     55 H23        10.2700   -0.6409    0.3097 H         1 <0>         0.0899
     56 H24        11.2670   -2.9082   -0.2378 H         1 <0>         0.0918
     57 H25        11.4212   -2.4130   -2.0076 H         1 <0>         0.0951
     58 H26        -1.4440    0.0507   -5.5005 H         1 <0>         0.0749
     59 H27        -1.7052   -1.6974   -5.7104 H         1 <0>         0.0771
     60 H28        -1.8502   -0.9635   -4.0953 H         1 <0>         0.0678
@<TRIPOS>BOND
     1    1    2 1
     2    1   34 1
     3    1   35 1
     4    1   36 1
     5    2    3 1
     6    2   37 1
     7    2   38 1
     8    3    4 1
     9    3    6 am
    10    4    5 1
    11    4   39 1
    12    4   40 1
    13    5   41 1
    14    5   42 1
    15    5   43 1
    16    6    7 2
    17    6    8 1
    18    8   13 1
    19    8    9 2
    20    9   10 1
    21    9   33 1
    22   10   11 2
    23   11   24 1
    24   11   12 1
    25   12   13 1
    26   12   22 1
    27   13   14 1
    28   13   15 1
    29   15   20 ar
    30   15   16 ar
    31   16   17 ar
    32   16   44 1
    33   17   18 ar
    34   17   45 1
    35   18   19 ar
    36   18   21 1
    37   19   20 ar
    38   19   46 1
    39   20   47 1
    40   22   23 2
    41   22   25 1
    42   23   24 1
    43   23   48 1
    44   25   26 2
    45   25   49 1
    46   26   27 1
    47   26   28 1
    48   28   29 1
    49   28   50 1
    50   29   30 1
    51   29   51 1
    52   29   52 1
    53   30   32 1
    54   30   31 1
    55   30   53 1
    56   31   32 1
    57   31   54 1
    58   31   55 1
    59   32   56 1
    60   32   57 1
    61   33   58 1
    62   33   59 1
    63   33   60 1
@<TRIPOS>MOLECULE
ZINC39279774
   51    55     0     0     0
SMALL
USER_CHARGES

@<TRIPOS>ATOM
      1 C1         -0.0163    1.3787    0.0141 C.ar      1 <0>        -0.1151
      2 C2          0.0274    0.0334    0.3292 C.ar      1 <0>        -0.1117
      3 C3          1.2336   -0.6416    0.3123 C.ar      1 <0>        -0.1186
      4 C4          2.3960    0.0285   -0.0201 C.ar      1 <0>        -0.1030
      5 C5          2.3522    1.3736   -0.3361 C.ar      1 <0>        -0.1009
      6 C6          1.1462    2.0489   -0.3178 C.ar      1 <0>        -0.1144
      7 C7          3.7112   -0.7071   -0.0376 C.3       1 <0>         0.0937
      8 H1          4.4873   -0.0868   -0.4857 H         1 <0>         0.1178
      9 C8          4.1060   -1.1162    1.3640 C.2       1 <0>         0.2020
     10 N1          3.8536   -2.3716    1.5314 N.2       1 <0>        -0.4575
     11 C9          3.2757   -2.9490    0.3125 C.3       1 <0>         0.2111
     12 H2          2.1974   -3.0619    0.4248 H         1 <0>         0.1143
     13 N2          3.5792   -1.9866   -0.7774 N.3       1 <0>        -0.6462
     14 S1          4.0386   -4.5564   -0.0407 S.3       1 <0>        -0.1607
     15 C10         5.8053   -4.1777   -0.2020 C.3       1 <0>         0.0275
     16 C11         6.5654   -5.4444   -0.5003 C.2       1 <0>         0.1294
     17 N3          7.0793   -6.2612    0.3754 N.2       1 <0>        -0.2652
     18 N4          7.6585   -7.2415   -0.2203 N.2       1 <0>        -0.3383
     19 C12         7.5457   -7.1040   -1.5212 C.2       1 <0>         0.3847
     20 S2          8.1788   -8.1972   -2.7495 S.3       1 <0>        -0.7882
     21 N5          6.8390   -5.9537   -1.7419 N.pl3     1 <0>        -0.4527
     22 C13         6.4734   -5.4081   -2.9815 C.ar      1 <0>         0.1591
     23 C14         5.1332   -5.3099   -3.3296 C.ar      1 <0>        -0.0896
     24 C15         4.7756   -4.7719   -4.5504 C.ar      1 <0>        -0.1014
     25 C16         5.7521   -4.3314   -5.4263 C.ar      1 <0>        -0.0317
     26 C17         7.0887   -4.4283   -5.0815 C.ar      1 <0>        -0.1020
     27 C18         7.4509   -4.9603   -3.8594 C.ar      1 <0>        -0.0725
     28 Cl1         5.2996   -3.6567   -6.9605 Cl        1 <0>        -0.0782
     29 C19         4.6896   -0.2203    2.3818 C.ar      1 <0>        -0.0472
     30 C20         4.9135    1.1258    2.0857 C.ar      1 <0>        -0.0854
     31 C21         5.4593    1.9574    3.0414 C.ar      1 <0>        -0.1260
     32 C22         5.7851    1.4604    4.2909 C.ar      1 <0>        -0.1005
     33 C23         5.5663    0.1275    4.5909 C.ar      1 <0>        -0.1249
     34 C24         5.0150   -0.7137    3.6468 C.ar      1 <0>        -0.0706
     35 H3         -0.9594    1.9050    0.0230 H         1 <0>         0.1236
     36 H4         -0.8808   -0.4902    0.5889 H         1 <0>         0.1240
     37 H5          1.2678   -1.6925    0.5591 H         1 <0>         0.1163
     38 H6          3.2605    1.8972   -0.5954 H         1 <0>         0.1258
     39 H7          1.1120    3.0999   -0.5643 H         1 <0>         0.1254
     40 H8          2.8231   -1.9425   -1.4441 H         1 <0>         0.3599
     41 H9          5.9516   -3.4663   -1.0147 H         1 <0>         0.0965
     42 H10         6.1708   -3.7455    0.7295 H         1 <0>         0.1037
     43 H11         4.3708   -5.6543   -2.6466 H         1 <0>         0.1380
     44 H12         3.7330   -4.6953   -4.8217 H         1 <0>         0.1359
     45 H13         7.8491   -4.0838   -5.7667 H         1 <0>         0.1366
     46 H14         8.4940   -5.0319   -3.5889 H         1 <0>         0.1358
     47 H15         4.6603    1.5148    1.1105 H         1 <0>         0.1252
     48 H16         5.6329    2.9988    2.8138 H         1 <0>         0.1269
     49 H17         6.2124    2.1158    5.0354 H         1 <0>         0.1248
     50 H18         5.8233   -0.2540    5.5681 H         1 <0>         0.1283
     51 H19         4.8400   -1.7527    3.8840 H         1 <0>         0.1360
@<TRIPOS>BOND
     1    1    6 ar
     2    1    2 ar
     3    1   35 1
     4    2    3 ar
     5    2   36 1
     6    3    4 ar
     7    3   37 1
     8    4    5 ar
     9    4    7 1
    10    5    6 ar
    11    5   38 1
    12    6   39 1
    13    7    8 1
    14    7   13 1
    15    7    9 1
    16    9   10 2
    17    9   29 1
    18   10   11 1
    19   11   12 1
    20   11   13 1
    21   11   14 1
    22   13   40 1
    23   14   15 1
    24   15   41 1
    25   15   42 1
    26   15   16 1
    27   16   21 1
    28   16   17 2
    29   17   18 1
    30   18   19 2
    31   19   20 1
    32   19   21 1
    33   21   22 1
    34   22   27 ar
    35   22   23 ar
    36   23   24 ar
    37   23   43 1
    38   24   25 ar
    39   24   44 1
    40   25   26 ar
    41   25   28 1
    42   26   27 ar
    43   26   45 1
    44   27   46 1
    45   29   34 ar
    46   29   30 ar
    47   30   31 ar
    48   30   47 1
    49   31   32 ar
    50   31   48 1
    51   32   33 ar
    52   32   49 1
    53   33   34 ar
    54   33   50 1
    55   34   51 1
@<TRIPOS>MOLECULE
ZINC39898964
   55    59     0     0     0
SMALL
USER_CHARGES

@<TRIPOS>ATOM
      1 C1         -0.5158    1.6412   -0.5182 C.3       1 <0>        -0.1174
      2 C2         -0.4140    0.1378   -0.5367 C.ar      1 <0>        -0.0737
      3 C3         -0.0726   -0.5175   -1.7050 C.ar      1 <0>        -0.1182
      4 C4          0.0208   -1.8966   -1.7219 C.ar      1 <0>        -0.0816
      5 C5         -0.2268   -2.6203   -0.5705 C.ar      1 <0>        -0.1258
      6 C6         -0.5673   -1.9650    0.5980 C.ar      1 <0>        -0.0907
      7 C7         -0.6565   -0.5856    0.6160 C.ar      1 <0>        -0.1267
      8 C8         -0.1259   -4.1238   -0.5893 C.3       1 <0>         0.1818
      9 N1          1.2426   -4.5257   -0.2545 N.am      1 <0>        -0.5895
     10 C9          2.3399   -4.7221   -1.2107 C.3       1 <0>         0.2500
     11 H1          2.0842   -5.5106   -1.9184 H         1 <0>         0.1109
     12 C10         3.5364   -5.1273   -0.3941 C.2       1 <0>        -0.1662
     13 C11         4.8872   -5.4913   -0.3814 C.2       1 <0>         0.1202
     14 N2          5.2247   -5.7109    0.8741 N.2       1 <0>        -0.2379
     15 N3          4.2213   -5.5218    1.6550 N.pl3     1 <0>        -0.3315
     16 H2          4.2388   -5.6251    2.6194 H         1 <0>         0.4540
     17 C12         3.1271   -5.1530    0.9253 C.2       1 <0>        -0.0582
     18 C13         1.7112   -4.7725    0.9820 C.2       1 <0>         0.5995
     19 O1          1.0536   -4.6944    2.0022 O.2       1 <0>        -0.5145
     20 C14         5.7765   -5.6090   -1.5637 C.ar      1 <0>        -0.0243
     21 C15         5.3398   -6.2802   -2.7030 C.ar      1 <0>        -0.0712
     22 C16         6.1710   -6.3867   -3.8011 C.ar      1 <0>        -0.0434
     23 C17         7.4378   -5.8284   -3.7726 C.ar      1 <0>        -0.0846
     24 C18         7.8798   -5.1605   -2.6464 C.ar      1 <0>        -0.1322
     25 C19         7.0534   -5.0417   -1.5405 C.ar      1 <0>         0.1423
     26 O2          7.4853   -4.3803   -0.4349 O.3       1 <0>        -0.4868
     27 Cl1         5.6259   -7.2236   -5.2210 Cl        1 <0>        -0.0611
     28 C20         2.6231   -3.4376   -1.9462 C.ar      1 <0>        -0.1000
     29 C21         2.8055   -2.2633   -1.2386 C.ar      1 <0>        -0.0545
     30 C22         3.0647   -1.0844   -1.9092 C.ar      1 <0>        -0.0903
     31 C23         3.1426   -1.0789   -3.2967 C.ar      1 <0>        -0.0686
     32 C24         2.9592   -2.2609   -4.0043 C.ar      1 <0>        -0.1336
     33 C25         2.7055   -3.4369   -3.3267 C.ar      1 <0>        -0.0815
     34 S1          3.4725    0.4232   -4.1568 S.3       1 <0>        -0.1175
     35 C26         3.4778   -0.0637   -5.9042 C.3       1 <0>        -0.1445
     36 H3          0.4544    2.0680   -0.2641 H         1 <0>         0.0705
     37 H4         -0.8228    1.9968   -1.5018 H         1 <0>         0.0669
     38 H5         -1.2528    1.9464    0.2247 H         1 <0>         0.0657
     39 H6          0.1208    0.0479   -2.6045 H         1 <0>         0.1196
     40 H7          0.2869   -2.4086   -2.6349 H         1 <0>         0.1180
     41 H8         -0.7610   -2.5304    1.4975 H         1 <0>         0.1233
     42 H9         -0.9189   -0.0733    1.5299 H         1 <0>         0.1199
     43 H10        -0.8169   -4.5435    0.1418 H         1 <0>         0.0992
     44 H11        -0.3801   -4.4927   -1.5830 H         1 <0>         0.0962
     45 H12         4.3525   -6.7173   -2.7279 H         1 <0>         0.1388
     46 H13         8.0834   -5.9156   -4.6340 H         1 <0>         0.1409
     47 H14         8.8688   -4.7270   -2.6298 H         1 <0>         0.1433
     48 H15         7.9393   -4.9426    0.2076 H         1 <0>         0.3966
     49 H16         2.7448   -2.2684   -0.1603 H         1 <0>         0.1151
     50 H17         3.2063   -0.1677   -1.3561 H         1 <0>         0.1237
     51 H18         3.0190   -2.2603   -5.0827 H         1 <0>         0.1246
     52 H19         2.5668   -4.3566   -3.8757 H         1 <0>         0.1272
     53 H20         3.6764    0.8104   -6.5243 H         1 <0>         0.1094
     54 H21         4.2534   -0.8112   -6.0707 H         1 <0>         0.0844
     55 H22         2.5067   -0.4829   -6.1675 H         1 <0>         0.0843
@<TRIPOS>BOND
     1    1    2 1
     2    1   36 1
     3    1   37 1
     4    1   38 1
     5    2    7 ar
     6    2    3 ar
     7    3    4 ar
     8    3   39 1
     9    4    5 ar
    10    4   40 1
    11    5    6 ar
    12    5    8 1
    13    6    7 ar
    14    6   41 1
    15    7   42 1
    16    8    9 1
    17    8   43 1
    18    8   44 1
    19    9   18 am
    20    9   10 1
    21   10   11 1
    22   10   12 1
    23   10   28 1
    24   12   17 2
    25   12   13 1
    26   13   14 2
    27   13   20 1
    28   14   15 1
    29   15   16 1
    30   15   17 1
    31   17   18 1
    32   18   19 2
    33   20   25 ar
    34   20   21 ar
    35   21   22 ar
    36   21   45 1
    37   22   23 ar
    38   22   27 1
    39   23   24 ar
    40   23   46 1
    41   24   25 ar
    42   24   47 1
    43   25   26 1
    44   26   48 1
    45   28   33 ar
    46   28   29 ar
    47   29   30 ar
    48   29   49 1
    49   30   31 ar
    50   30   50 1
    51   31   32 ar
    52   31   34 1
    53   32   33 ar
    54   32   51 1
    55   33   52 1
    56   34   35 1
    57   35   53 1
    58   35   54 1
    59   35   55 1
@<TRIPOS>MOLECULE
ZINC13408103
   44    47     0     0     0
SMALL
USER_CHARGES
3-[[4-allyl-5-(2,4-dichlorophenyl)-1,2,4-triazol-3-yl]sulfanylmethyl]-4-fluoro-benzothiophene-2-carboxylic acid
@<TRIPOS>ATOM
      1 C1          3.1243   -2.3584   -2.3754 C.2       1 <0>        -0.1406
      2 C2          1.9714   -1.9748   -1.8859 C.2       1 <0>        -0.1919
      3 C3          1.8241   -1.7333   -0.4057 C.3       1 <0>         0.1339
      4 N1          1.3135   -0.3788   -0.1803 N.pl3     1 <0>        -0.4544
      5 C4         -0.0038    0.0130   -0.1156 C.2       1 <0>         0.1891
      6 N2         -0.0104    1.3079    0.1000 N.2       1 <0>        -0.2413
      7 N3          1.1953    1.7466    0.1736 N.2       1 <0>        -0.2870
      8 C5          2.0459    0.7585    0.0093 C.2       1 <0>         0.1911
      9 S1          3.8037    0.8782    0.0305 S.3       1 <0>         0.0172
     10 C6          3.9943    2.6537    0.3259 C.3       1 <0>        -0.0472
     11 C7          5.4601    2.9988    0.3844 C.2       1 <0>        -0.1159
     12 C8          6.1423    2.9653    1.6128 C.ar      1 <0>        -0.0972
     13 C9          5.6306    2.6215    2.8934 C.ar      1 <0>         0.1357
     14 C10         6.4440    2.6351    3.9960 C.ar      1 <0>        -0.1632
     15 C11         7.7876    2.9759    3.9015 C.ar      1 <0>        -0.0833
     16 C12         8.3205    3.3095    2.6732 C.ar      1 <0>        -0.0815
     17 C13         7.5156    3.3012    1.5539 C.ar      1 <0>        -0.1196
     18 S2          7.7814    3.6522   -0.1661 S.3       1 <0>         0.1021
     19 C14         6.1232    3.3484   -0.7510 C.2       1 <0>        -0.0821
     20 C15         5.6028    3.4509   -2.1195 C.2       1 <0>         0.5207
     21 O1          4.4335    3.2060   -2.3451 O.co2     1 <0>        -0.5850
     22 F1          4.3293    2.2837    3.0257 F         1 <0>        -0.1298
     23 C16        -1.1881   -0.8595   -0.2606 C.ar      1 <0>         0.0128
     24 C17        -1.2703   -2.0545    0.4562 C.ar      1 <0>        -0.0805
     25 C18        -2.3803   -2.8617    0.3212 C.ar      1 <0>        -0.1029
     26 C19        -3.4077   -2.4950   -0.5322 C.ar      1 <0>        -0.0163
     27 C20        -3.3305   -1.3143   -1.2506 C.ar      1 <0>        -0.1010
     28 C21        -2.2270   -0.4946   -1.1199 C.ar      1 <0>         0.0058
     29 Cl1        -2.1310    0.9857   -2.0217 Cl        1 <0>        -0.0235
     30 Cl2        -4.7984   -3.5203   -0.7013 Cl        1 <0>        -0.0548
     31 H1          3.2299   -2.5315   -3.4362 H         1 <0>         0.1091
     32 H2          3.9693   -2.5016   -1.7182 H         1 <0>         0.1037
     33 H3          1.1264   -1.8316   -2.5431 H         1 <0>         0.1157
     34 H4          2.7947   -1.8409    0.0784 H         1 <0>         0.1037
     35 H5          1.1267   -2.4588    0.0132 H         1 <0>         0.1030
     36 H6          3.5222    3.2096   -0.4841 H         1 <0>         0.1357
     37 H7          3.5210    2.9175    1.2717 H         1 <0>         0.1016
     38 H8          6.0317    2.3748    4.9596 H         1 <0>         0.1348
     39 H9          8.4109    2.9794    4.7835 H         1 <0>         0.1386
     40 H10         9.3637    3.5763    2.5890 H         1 <0>         0.1346
     41 H11        -0.4678   -2.3443    1.1184 H         1 <0>         0.1428
     42 H12        -2.4468   -3.7840    0.8792 H         1 <0>         0.1462
     43 H13        -4.1346   -1.0338   -1.9148 H         1 <0>         0.1508
     44 O2          6.4216    3.8168   -3.1266 O.co2     1 <0>        -0.7298
@<TRIPOS>BOND
     1    1    2 2
     2    1   31 1
     3    1   32 1
     4    2    3 1
     5    2   33 1
     6    3    4 1
     7    3   34 1
     8    3   35 1
     9    4    8 1
    10    4    5 1
    11    5    6 2
    12    5   23 1
    13    6    7 1
    14    7    8 2
    15    8    9 1
    16    9   10 1
    17   10   11 1
    18   10   36 1
    19   10   37 1
    20   11   19 2
    21   11   12 1
    22   12   17 ar
    23   12   13 ar
    24   13   14 ar
    25   13   22 1
    26   14   15 ar
    27   14   38 1
    28   15   16 ar
    29   15   39 1
    30   16   17 ar
    31   16   40 1
    32   17   18 1
    33   18   19 1
    34   19   20 1
    35   20   21 2
    36   20   44 1
    37   23   28 ar
    38   23   24 ar
    39   24   25 ar
    40   24   41 1
    41   25   26 ar
    42   25   42 1
    43   26   27 ar
    44   26   30 1
    45   27   28 ar
    46   27   43 1
    47   28   29 1
@<TRIPOS>MOLECULE
ZINC35693670
   56    59     0     0     0
SMALL
USER_CHARGES

@<TRIPOS>ATOM
      1 C1          0.9879    0.6274   -2.5871 C.3       1 <0>        -0.0921
      2 C2          0.6179   -0.7551   -2.1151 C.2       1 <0>         0.2991
      3 C3         -0.4624   -0.9256   -1.2708 C.2       1 <0>        -0.3878
      4 C4         -0.7940   -2.3324   -0.8253 C.3       1 <0>         0.2590
      5 H1         -0.7594   -2.3564    0.2638 H         1 <0>         0.0733
      6 N1          0.0751   -3.4262   -1.3353 N.pl3     1 <0>        -0.5137
      7 C5         -0.0403   -4.7749   -1.0627 C.2       1 <0>         0.2271
      8 C6          0.8586   -5.6085   -1.6315 C.2       1 <0>        -0.2959
      9 S1          1.8752   -4.4770   -2.5592 S.3       1 <0>         0.1440
     10 C7          1.0945   -3.0452   -2.1623 C.2       1 <0>         0.3221
     11 N2          1.3264   -1.7979   -2.5164 N.2       1 <0>        -0.5946
     12 C8         -1.1025   -5.2857   -0.1847 C.2       1 <0>        -0.4493
     13 C9         -1.1565   -6.5982    0.1139 C.2       1 <0>         0.4848
     14 O1         -0.2866   -7.4614   -0.4655 O.3       1 <0>        -0.6843
     15 N3         -2.1009   -7.0656    1.0129 N.pl3     1 <0>        -0.6883
     16 C10        -2.0751   -8.4026    1.4221 C.ar      1 <0>         0.1885
     17 C11        -0.8614   -9.0619    1.5687 C.ar      1 <0>        -0.0942
     18 C12        -0.8384  -10.3823    1.9729 C.ar      1 <0>        -0.1329
     19 C13        -2.0242  -11.0490    2.2319 C.ar      1 <0>         0.0474
     20 C14        -3.2354  -10.3938    2.0860 C.ar      1 <0>        -0.1328
     21 C15        -3.2630   -9.0716    1.6880 C.ar      1 <0>        -0.1496
     22 F1         -1.9993  -12.3406    2.6272 F         1 <0>        -0.1523
     23 C16        -2.2097   -2.6309   -1.2469 C.ar      1 <0>        -0.0696
     24 C17        -2.4981   -2.8747   -2.5767 C.ar      1 <0>        -0.0926
     25 C18        -3.7967   -3.1485   -2.9634 C.ar      1 <0>        -0.1230
     26 C19        -4.8068   -3.1791   -2.0202 C.ar      1 <0>        -0.1215
     27 C20        -4.5183   -2.9363   -0.6903 C.ar      1 <0>        -0.1249
     28 C21        -3.2190   -2.6667   -0.3030 C.ar      1 <0>        -0.0754
     29 C22        -1.2246    0.1676   -0.8415 C.2       1 <0>         0.5361
     30 O2         -0.9049    1.2982   -1.1655 O.2       1 <0>        -0.5492
     31 O3         -2.3147   -0.0308   -0.0677 O.3       1 <0>        -0.3463
     32 C23        -3.1051    1.1175    0.2462 C.3       1 <0>         0.0805
     33 C24        -4.2208    1.2675   -0.7900 C.3       1 <0>        -0.1647
     34 C25        -3.7201    0.9486    1.6370 C.3       1 <0>        -0.1476
     35 H2          1.8555    0.5670   -3.2442 H         1 <0>         0.0642
     36 H3          0.1495    1.0621   -3.1314 H         1 <0>         0.0846
     37 H4          1.2264    1.2532   -1.7271 H         1 <0>         0.0882
     38 H5          0.9399   -6.6820   -1.5457 H         1 <0>         0.2395
     39 H6         -1.8398   -4.6089    0.2210 H         1 <0>         0.0948
     40 H7         -2.7801   -6.4656    1.3587 H         1 <0>         0.3981
     41 H8          0.0637   -8.5425    1.3664 H         1 <0>         0.1490
     42 H9          0.1051  -10.8954    2.0866 H         1 <0>         0.1289
     43 H10        -4.1590  -10.9160    2.2879 H         1 <0>         0.1275
     44 H11        -4.2077   -8.5597    1.5790 H         1 <0>         0.1255
     45 H12        -1.7089   -2.8508   -3.3136 H         1 <0>         0.1032
     46 H13        -4.0221   -3.3382   -4.0024 H         1 <0>         0.1137
     47 H14        -5.8215   -3.3924   -2.3224 H         1 <0>         0.1138
     48 H15        -5.3076   -2.9598    0.0465 H         1 <0>         0.1152
     49 H16        -2.9929   -2.4806    0.7366 H         1 <0>         0.1170
     50 H17        -2.4751    2.0069    0.2331 H         1 <0>         0.0789
     51 H18        -3.7827    1.3878   -1.7808 H         1 <0>         0.0569
     52 H19        -4.8508    0.3781   -0.7768 H         1 <0>         0.0629
     53 H20        -4.8237    2.1434   -0.5505 H         1 <0>         0.0643
     54 H21        -2.9273    0.9285    2.3848 H         1 <0>         0.0595
     55 H22        -4.3912    1.7829    1.8413 H         1 <0>         0.0698
     56 H23        -4.2798    0.0141    1.6757 H         1 <0>         0.0649
@<TRIPOS>BOND
     1    1    2 1
     2    1   35 1
     3    1   36 1
     4    1   37 1
     5    2   11 1
     6    2    3 2
     7    3    4 1
     8    3   29 1
     9    4    5 1
    10    4    6 1
    11    4   23 1
    12    6   10 1
    13    6    7 1
    14    7    8 2
    15    7   12 1
    16    8    9 1
    17    8   38 1
    18    9   10 1
    19   10   11 2
    20   12   13 2
    21   12   39 1
    22   13   14 1
    23   13   15 1
    24   15   16 1
    25   15   40 1
    26   16   21 ar
    27   16   17 ar
    28   17   18 ar
    29   17   41 1
    30   18   19 ar
    31   18   42 1
    32   19   20 ar
    33   19   22 1
    34   20   21 ar
    35   20   43 1
    36   21   44 1
    37   23   28 ar
    38   23   24 ar
    39   24   25 ar
    40   24   45 1
    41   25   26 ar
    42   25   46 1
    43   26   27 ar
    44   26   47 1
    45   27   28 ar
    46   27   48 1
    47   28   49 1
    48   29   30 2
    49   29   31 1
    50   31   32 1
    51   32   33 1
    52   32   34 1
    53   32   50 1
    54   33   51 1
    55   33   52 1
    56   33   53 1
    57   34   54 1
    58   34   55 1
    59   34   56 1
@<TRIPOS>MOLECULE
ZINC36058831
   62    65     0     0     0
SMALL
USER_CHARGES

@<TRIPOS>ATOM
      1 C1         -1.3153    1.2817    0.3100 C.3       1 <0>        -0.1253
      2 C2         -0.5458    0.0001    0.1197 C.ar      1 <0>        -0.0393
      3 C3         -0.5938   -0.6614   -1.0934 C.ar      1 <0>        -0.1279
      4 C4          0.1120   -1.8369   -1.2680 C.ar      1 <0>        -0.1175
      5 C5          0.8664   -2.3509   -0.2296 C.ar      1 <0>        -0.1308
      6 C6          0.9152   -1.6891    0.9827 C.ar      1 <0>        -0.0898
      7 C7          0.2126   -0.5111    1.1560 C.ar      1 <0>        -0.0712
      8 C8          0.2699    0.2133    2.4762 C.3       1 <0>         0.2536
      9 H1         -0.4616    1.0207    2.4445 H         1 <0>         0.0813
     10 C9          1.6429    0.8339    2.6075 C.2       1 <0>        -0.3923
     11 C10         2.4103    0.4752    3.6992 C.2       1 <0>         0.3017
     12 N1          1.9462   -0.3842    4.5916 N.2       1 <0>        -0.5976
     13 C11         0.7625   -0.9594    4.5363 C.2       1 <0>         0.3194
     14 N2         -0.1458   -0.7396    3.5397 N.pl3     1 <0>        -0.5120
     15 C12        -1.3440   -1.4204    3.6235 C.2       1 <0>         0.2329
     16 C13        -1.5237   -2.2457    4.6783 C.2       1 <0>        -0.3074
     17 S1          0.0117   -2.0583    5.5589 S.3       1 <0>         0.1415
     18 C14        -2.3875   -1.2529    2.6019 C.2       1 <0>        -0.4714
     19 C15        -3.5887   -1.8405    2.7634 C.2       1 <0>         0.5010
     20 O1         -3.8739   -2.4938    3.9161 O.3       1 <0>        -0.7040
     21 N3         -4.5321   -1.7770    1.7519 N.pl3     1 <0>        -0.7498
     22 C16        -5.8386   -2.4162    1.9276 C.3       1 <0>         0.1784
     23 C17        -6.6728   -2.2023    0.6910 C.ar      1 <0>        -0.0922
     24 C18        -7.4841   -1.0877    0.5888 C.ar      1 <0>        -0.1044
     25 C19        -8.2494   -0.8915   -0.5456 C.ar      1 <0>        -0.1244
     26 C20        -8.2030   -1.8097   -1.5780 C.ar      1 <0>        -0.1238
     27 C21        -7.3910   -2.9238   -1.4761 C.ar      1 <0>        -0.1242
     28 C22        -6.6225   -3.1177   -0.3436 C.ar      1 <0>        -0.1036
     29 C23         3.7853    1.0666    3.8742 C.3       1 <0>        -0.1165
     30 C24         2.1206    1.7413    1.6543 C.2       1 <0>         0.5380
     31 O2          3.2620    2.1619    1.7316 O.2       1 <0>        -0.5503
     32 O3          1.3163    2.1509    0.6485 O.3       1 <0>        -0.3435
     33 C25         1.9013    2.9899   -0.3494 C.3       1 <0>         0.0775
     34 C26         2.3648    2.1325   -1.5288 C.3       1 <0>        -0.1638
     35 C27         0.8645    4.0055   -0.8337 C.3       1 <0>        -0.1510
     36 H2         -0.6612    2.1310    0.1128 H         1 <0>         0.0895
     37 H3         -2.1588    1.3049   -0.3800 H         1 <0>         0.0561
     38 H4         -1.6826    1.3362    1.3348 H         1 <0>         0.0680
     39 H5         -1.1832   -0.2599   -1.9045 H         1 <0>         0.1143
     40 H6          0.0739   -2.3540   -2.2153 H         1 <0>         0.1131
     41 H7          1.4174   -3.2698   -0.3658 H         1 <0>         0.1125
     42 H8          1.5042   -2.0909    1.7939 H         1 <0>         0.1030
     43 H9         -2.3777   -2.8596    4.9238 H         1 <0>         0.2340
     44 H10        -2.1911   -0.6587    1.7217 H         1 <0>         0.0970
     45 H11        -4.3280   -1.3094    0.9269 H         1 <0>         0.3856
     46 H12        -5.7010   -3.4848    2.0928 H         1 <0>         0.0592
     47 H13        -6.3448   -1.9778    2.7877 H         1 <0>         0.0590
     48 H14        -7.5204   -0.3704    1.3953 H         1 <0>         0.1222
     49 H15        -8.8838   -0.0211   -0.6251 H         1 <0>         0.1194
     50 H16        -8.8014   -1.6567   -2.4639 H         1 <0>         0.1178
     51 H17        -7.3550   -3.6412   -2.2826 H         1 <0>         0.1194
     52 H18        -5.9853   -3.9862   -0.2656 H         1 <0>         0.1223
     53 H19         3.7034    2.0397    4.3584 H         1 <0>         0.0782
     54 H20         4.3902    0.4031    4.4921 H         1 <0>         0.0638
     55 H21         4.2568    1.1848    2.8986 H         1 <0>         0.1130
     56 H22         2.7559    3.5171    0.0745 H         1 <0>         0.0808
     57 H23         2.8111    2.7724   -2.2900 H         1 <0>         0.0638
     58 H24         3.1035    1.4089   -1.1838 H         1 <0>         0.0568
     59 H25         1.5102    1.6053   -1.9528 H         1 <0>         0.0633
     60 H26         0.5996    4.6733   -0.0139 H         1 <0>         0.0602
     61 H27         1.2819    4.5871   -1.6556 H         1 <0>         0.0699
     62 H28        -0.0266    3.4797   -1.1765 H         1 <0>         0.0666
@<TRIPOS>BOND
     1    1    2 1
     2    1   36 1
     3    1   37 1
     4    1   38 1
     5    2    7 ar
     6    2    3 ar
     7    3    4 ar
     8    3   39 1
     9    4    5 ar
    10    4   40 1
    11    5    6 ar
    12    5   41 1
    13    6    7 ar
    14    6   42 1
    15    7    8 1
    16    8    9 1
    17    8   14 1
    18    8   10 1
    19   10   11 2
    20   10   30 1
    21   11   12 1
    22   11   29 1
    23   12   13 2
    24   13   17 1
    25   13   14 1
    26   14   15 1
    27   15   16 2
    28   15   18 1
    29   16   17 1
    30   16   43 1
    31   18   19 2
    32   18   44 1
    33   19   20 1
    34   19   21 1
    35   21   22 1
    36   21   45 1
    37   22   23 1
    38   22   46 1
    39   22   47 1
    40   23   28 ar
    41   23   24 ar
    42   24   25 ar
    43   24   48 1
    44   25   26 ar
    45   25   49 1
    46   26   27 ar
    47   26   50 1
    48   27   28 ar
    49   27   51 1
    50   28   52 1
    51   29   53 1
    52   29   54 1
    53   29   55 1
    54   30   31 2
    55   30   32 1
    56   32   33 1
    57   33   34 1
    58   33   35 1
    59   33   56 1
    60   34   57 1
    61   34   58 1
    62   34   59 1
    63   35   60 1
    64   35   61 1
    65   35   62 1
@<TRIPOS>MOLECULE
ZINC38710757
   59    61     0     0     0
SMALL
USER_CHARGES

@<TRIPOS>ATOM
      1 C1         -1.0967    1.5464   -0.8373 C.3       1 <0>        -0.1173
      2 C2         -1.2324    0.0527   -0.9841 C.ar      1 <0>        -0.1001
      3 C3         -0.9754   -0.5482   -2.2023 C.ar      1 <0>        -0.0089
      4 C4         -1.0996   -1.9179   -2.3377 C.ar      1 <0>        -0.6085
      5 C5         -1.4811   -2.6888   -1.2537 C.ar      1 <0>         0.0636
      6 C6         -1.7380   -2.0883   -0.0346 C.ar      1 <0>        -0.1265
      7 C7         -1.6087   -0.7176    0.1016 C.ar      1 <0>         0.0097
      8 Cl1        -1.9251    0.0364    1.6330 Cl        1 <0>        -0.0580
      9 Cl2        -1.6377   -4.4093   -1.4242 Cl        1 <0>        -0.0185
     10 S1         -0.7729   -2.6827   -3.8911 S.o2      1 <0>         2.6009
     11 O1         -1.8707   -3.5443   -4.1585 O.2       1 <0>        -1.0068
     12 O2         -0.3845   -1.6451   -4.7809 O.2       1 <0>        -1.0240
     13 N1          0.5530   -3.6541   -3.6893 N.2       1 <0>        -1.0726
     14 C8          1.0481   -4.3951   -4.7681 C.ar      1 <0>         0.3005
     15 C9          0.4310   -4.3114   -6.0095 C.ar      1 <0>        -0.2590
     16 C10         0.9183   -5.0400   -7.0785 C.ar      1 <0>        -0.0528
     17 C11         2.0239   -5.8568   -6.9136 C.ar      1 <0>        -0.0343
     18 C12         2.6432   -5.9452   -5.6681 C.ar      1 <0>         0.1641
     19 C13         2.1598   -5.2096   -4.5988 C.ar      1 <0>        -0.1813
     20 N2          3.7551   -6.7839   -5.5118 N.am      1 <0>        -0.5500
     21 C14         4.7678   -6.7146   -6.4045 C.2       1 <0>         0.5381
     22 O3          5.7069   -7.4778   -6.3210 O.2       1 <0>        -0.5380
     23 C15         4.7244   -5.6852   -7.5040 C.3       1 <0>        -0.1164
     24 C16         3.7125   -6.0995   -8.5703 C.3       1 <0>         0.0743
     25 O4          2.5135   -6.5724   -7.9618 O.3       1 <0>        -0.3184
     26 C17         6.1105   -5.5632   -8.1400 C.3       1 <0>        -0.1232
     27 C18         4.3174   -4.3323   -6.9168 C.3       1 <0>        -0.1687
     28 C19         3.8190   -7.7266   -4.3923 C.3       1 <0>         0.1143
     29 C20         3.1970   -9.0599   -4.8122 C.3       1 <0>        -0.1262
     30 C21         3.2637  -10.0445   -3.6430 C.3       1 <0>        -0.0940
     31 C22         2.5318  -11.3342   -4.0199 C.3       1 <0>        -0.1446
     32 C23         4.7266  -10.3622   -3.3267 C.3       1 <0>        -0.1473
     33 H1         -0.0766    1.7912   -0.5415 H         1 <0>         0.0787
     34 H2         -1.3244    2.0271   -1.7886 H         1 <0>         0.0755
     35 H3         -1.7909    1.9011   -0.0755 H         1 <0>         0.0742
     36 H4         -0.6776    0.0531   -3.0486 H         1 <0>         0.1564
     37 H5         -2.0357   -2.6896    0.8117 H         1 <0>         0.1477
     38 H6         -0.4322   -3.6756   -6.1400 H         1 <0>         0.1057
     39 H7          0.4361   -4.9723   -8.0425 H         1 <0>         0.1179
     40 H8          2.6439   -5.2721   -3.6354 H         1 <0>         0.1232
     41 H9          3.4821   -5.2412   -9.2014 H         1 <0>         0.0613
     42 H10         4.1408   -6.8909   -9.1855 H         1 <0>         0.0926
     43 H11         6.4061   -6.5269   -8.5548 H         1 <0>         0.0641
     44 H12         6.0810   -4.8189   -8.9358 H         1 <0>         0.0626
     45 H13         6.8321   -5.2569   -7.3827 H         1 <0>         0.0611
     46 H14         4.8410   -4.1731   -5.9741 H         1 <0>         0.0593
     47 H15         4.5797   -3.5387   -7.6165 H         1 <0>         0.0622
     48 H16         3.2417   -4.3211   -6.7413 H         1 <0>         0.0970
     49 H17         4.8597   -7.8844   -4.1091 H         1 <0>         0.0833
     50 H18         3.2690   -7.3205   -3.5434 H         1 <0>         0.0836
     51 H19         2.1563   -8.9022   -5.0954 H         1 <0>         0.0684
     52 H20         3.7469   -9.4661   -5.6611 H         1 <0>         0.0650
     53 H21         2.7906   -9.6009   -2.7670 H         1 <0>         0.0713
     54 H22         3.0050  -11.7778   -4.8959 H         1 <0>         0.0523
     55 H23         2.5794  -12.0356   -3.1869 H         1 <0>         0.0517
     56 H24         1.4897  -11.1079   -4.2453 H         1 <0>         0.0548
     57 H25         5.2480   -9.4434   -3.0582 H         1 <0>         0.0561
     58 H26         4.7742  -11.0636   -2.4937 H         1 <0>         0.0501
     59 H27         5.1997  -10.8058   -4.2027 H         1 <0>         0.0539
@<TRIPOS>BOND
     1    1    2 1
     2    1   33 1
     3    1   34 1
     4    1   35 1
     5    2    7 ar
     6    2    3 ar
     7    3    4 ar
     8    3   36 1
     9    4    5 ar
    10    4   10 1
    11    5    6 ar
    12    5    9 1
    13    6    7 ar
    14    6   37 1
    15    7    8 1
    16   10   11 2
    17   10   12 2
    18   10   13 1
    19   13   14 1
    20   14   19 ar
    21   14   15 ar
    22   15   16 ar
    23   15   38 1
    24   16   17 ar
    25   16   39 1
    26   17   25 1
    27   17   18 ar
    28   18   19 ar
    29   18   20 1
    30   19   40 1
    31   20   21 am
    32   20   28 1
    33   21   22 2
    34   21   23 1
    35   23   24 1
    36   23   26 1
    37   23   27 1
    38   24   25 1
    39   24   41 1
    40   24   42 1
    41   26   43 1
    42   26   44 1
    43   26   45 1
    44   27   46 1
    45   27   47 1
    46   27   48 1
    47   28   29 1
    48   28   49 1
    49   28   50 1
    50   29   30 1
    51   29   51 1
    52   29   52 1
    53   30   31 1
    54   30   32 1
    55   30   53 1
    56   31   54 1
    57   31   55 1
    58   31   56 1
    59   32   57 1
    60   32   58 1
    61   32   59 1
@<TRIPOS>MOLECULE
ZINC33438021
   60    63     0     0     0
SMALL
USER_CHARGES

@<TRIPOS>ATOM
      1 C1         -1.1761    0.9071    0.3699 C.3       1 <0>        -0.1046
      2 C2         -0.0413   -0.0343    0.0586 C.2       1 <0>         0.0814
      3 C3          0.9404   -0.2155    0.9484 C.2       1 <0>         0.0368
      4 N1          1.9141   -1.1400    0.7106 N.2       1 <0>        -0.4842
      5 C4          2.8751   -1.3174    1.5817 C.2       1 <0>         0.4518
      6 N2          3.3036   -0.8226    2.8474 N.2       1 <0>        -0.6674
      7 C5          4.1257   -1.7800    3.5001 C.2       1 <0>         0.5063
      8 N3          4.5193   -2.1054    4.7075 N.2       1 <0>        -0.5330
      9 C6          5.3671   -3.1657    4.8889 C.ar      1 <0>         0.1634
     10 C7          5.1426   -4.3664    4.2119 C.ar      1 <0>        -0.1363
     11 C8          5.9997   -5.4311    4.3978 C.ar      1 <0>        -0.1145
     12 C9          7.0818   -5.3116    5.2545 C.ar      1 <0>         0.0655
     13 C10         7.3103   -4.1224    5.9296 C.ar      1 <0>        -0.0491
     14 C11         6.4622   -3.0483    5.7468 C.ar      1 <0>        -0.1000
     15 Cl1         8.6683   -3.9815    7.0018 Cl        1 <0>        -0.0616
     16 F1          7.9174   -6.3581    5.4333 F         1 <0>        -0.1364
     17 S1          4.3342   -2.3102    1.8159 S.3       1 <0>        -0.4435
     18 N4         -0.0148   -0.7157   -1.1563 N.pl3     1 <0>        -0.6274
     19 C12         0.1210    0.0285   -2.4108 C.3       1 <0>         0.1928
     20 C13         1.5815    0.1779   -2.7508 C.ar      1 <0>        -0.1445
     21 C14         2.2892    1.2719   -2.2875 C.ar      1 <0>        -0.0475
     22 C15         3.6278    1.4119   -2.5971 C.ar      1 <0>        -0.1936
     23 C16         4.2632    0.4523   -3.3750 C.ar      1 <0>         0.2116
     24 C17         3.5492   -0.6454   -3.8388 C.ar      1 <0>        -0.1999
     25 C18         2.2123   -0.7821   -3.5206 C.ar      1 <0>        -0.0579
     26 N5          5.6167    0.5910   -3.6905 N.pl3     1 <0>        -0.6419
     27 C19         6.3366    1.8088   -3.3097 C.3       1 <0>         0.0974
     28 C20         6.3166   -0.4814   -4.4022 C.3       1 <0>         0.0929
     29 C21        -0.1226   -2.1766   -1.1792 C.3       1 <0>         0.1927
     30 C22        -1.5601   -2.5707   -1.4010 C.ar      1 <0>        -0.1405
     31 C23        -2.4385   -2.6537   -0.3312 C.ar      1 <0>        -0.0595
     32 C24        -3.7516   -3.0201   -0.5825 C.ar      1 <0>        -0.1745
     33 C25        -4.1390   -3.2888   -1.8819 C.ar      1 <0>         0.0857
     34 N6         -3.2761   -3.2002   -2.8749 N.ar      1 <0>        -0.4893
     35 C26        -2.0210   -2.8485   -2.6737 C.ar      1 <0>         0.1015
     36 H1         -0.9233    1.9086    0.0220 H         1 <0>         0.0558
     37 H2         -2.0804    0.5651   -0.1335 H         1 <0>         0.0574
     38 H3         -1.3456    0.9284    1.4464 H         1 <0>         0.0616
     39 H4          0.9619    0.3703    1.8555 H         1 <0>         0.0957
     40 H5          4.2990   -4.4613    3.5442 H         1 <0>         0.1376
     41 H6          5.8266   -6.3599    3.8745 H         1 <0>         0.1399
     42 H7          6.6432   -2.1207    6.2695 H         1 <0>         0.1444
     43 H8         -0.3848   -0.5123   -3.2107 H         1 <0>         0.0608
     44 H9         -0.3287    1.0151   -2.2984 H         1 <0>         0.0637
     45 H10         1.7945    2.0178   -1.6830 H         1 <0>         0.1123
     46 H11         4.1799    2.2667   -2.2353 H         1 <0>         0.1140
     47 H12         4.0401   -1.3931   -4.4440 H         1 <0>         0.1160
     48 H13         1.6577   -1.6375   -3.8772 H         1 <0>         0.1119
     49 H14         6.7685    1.6802   -2.3172 H         1 <0>         0.0460
     50 H15         7.1318    2.0010   -4.0299 H         1 <0>         0.0613
     51 H16         5.6450    2.6512   -3.2986 H         1 <0>         0.0660
     52 H17         5.6047   -1.2593   -4.6780 H         1 <0>         0.0766
     53 H18         6.7805   -0.0777   -5.3022 H         1 <0>         0.0504
     54 H19         7.0854   -0.9049   -3.7559 H         1 <0>         0.0488
     55 H20         0.4918   -2.5736   -1.9872 H         1 <0>         0.0652
     56 H21         0.2225   -2.5814   -0.2278 H         1 <0>         0.0846
     57 H22        -2.1074   -2.4382    0.6740 H         1 <0>         0.1303
     58 H23        -4.4629   -3.0951    0.2268 H         1 <0>         0.1293
     59 H24        -5.1602   -3.5749   -2.0861 H         1 <0>         0.1489
     60 H25        -1.3444   -2.7815   -3.5129 H         1 <0>         0.1490
@<TRIPOS>BOND
     1    1    2 1
     2    1   36 1
     3    1   37 1
     4    1   38 1
     5    2    3 2
     6    2   18 1
     7    3    4 1
     8    3   39 1
     9    4    5 2
    10    5   17 1
    11    5    6 1
    12    6    7 1
    13    7    8 2
    14    7   17 1
    15    8    9 1
    16    9   14 ar
    17    9   10 ar
    18   10   11 ar
    19   10   40 1
    20   11   12 ar
    21   11   41 1
    22   12   13 ar
    23   12   16 1
    24   13   14 ar
    25   13   15 1
    26   14   42 1
    27   18   19 1
    28   18   29 1
    29   19   20 1
    30   19   43 1
    31   19   44 1
    32   20   25 ar
    33   20   21 ar
    34   21   22 ar
    35   21   45 1
    36   22   23 ar
    37   22   46 1
    38   23   24 ar
    39   23   26 1
    40   24   25 ar
    41   24   47 1
    42   25   48 1
    43   26   27 1
    44   26   28 1
    45   27   49 1
    46   27   50 1
    47   27   51 1
    48   28   52 1
    49   28   53 1
    50   28   54 1
    51   29   30 1
    52   29   55 1
    53   29   56 1
    54   30   35 ar
    55   30   31 ar
    56   31   32 ar
    57   31   57 1
    58   32   33 ar
    59   32   58 1
    60   33   34 ar
    61   33   59 1
    62   34   35 ar
    63   35   60 1
@<TRIPOS>MOLECULE
ZINC08781531
   75    80     0     0     0
SMALL
USER_CHARGES
N-cyclohexyl-1-[1-(4-methoxyphenyl)-2-phenyl-4-(p-tolylsulfanyl)-6,7-dihydroindol-5-yl]-methanimine
@<TRIPOS>ATOM
      1 C1          7.6666    0.3140   -6.3836 C.3       1 <0>        -0.1125
      2 C2          7.8599    0.5799   -4.9129 C.ar      1 <0>        -0.0987
      3 C3          8.6231   -0.2851   -4.1499 C.ar      1 <0>        -0.1032
      4 C4          8.8015   -0.0450   -2.8019 C.ar      1 <0>        -0.1062
      5 C5          8.2136    1.0674   -2.2121 C.ar      1 <0>        -0.0937
      6 C6          7.4431    1.9314   -2.9807 C.ar      1 <0>        -0.1132
      7 C7          7.2732    1.6880   -4.3293 C.ar      1 <0>        -0.1034
      8 S1          8.4386    1.3777   -0.4923 S.3       1 <0>         0.0812
      9 C8          7.3362    2.7356   -0.2796 C.2       1 <0>        -0.0310
     10 C9          7.7929    3.9897    0.0368 C.2       1 <0>        -0.0732
     11 C10         6.8582    5.1331    0.3030 C.3       1 <0>        -0.0653
     12 C11         5.6095    5.0887   -0.5775 C.3       1 <0>        -0.0443
     13 C12         5.0536    3.6879   -0.5747 C.2       1 <0>         0.0536
     14 C13         5.8783    2.5786   -0.4320 C.2       1 <0>        -0.1392
     15 C14         5.0652    1.4391   -0.4898 C.2       1 <0>        -0.1198
     16 C15         3.7826    1.8717   -0.6534 C.2       1 <0>         0.0437
     17 N1          3.7874    3.2499   -0.7056 N.pl3     1 <0>        -0.3659
     18 C16         2.6564    4.0632   -0.8656 C.ar      1 <0>         0.0673
     19 C17         2.4847    4.7917   -2.0351 C.ar      1 <0>        -0.0667
     20 C18         1.3684    5.5886   -2.1941 C.ar      1 <0>        -0.1977
     21 C19         0.4234    5.6692   -1.1814 C.ar      1 <0>         0.1437
     22 C20         0.5971    4.9456   -0.0105 C.ar      1 <0>        -0.1385
     23 C21         1.7106    4.1447    0.1476 C.ar      1 <0>        -0.0586
     24 O1         -0.6729    6.4580   -1.3364 O.3       1 <0>        -0.3114
     25 C22        -0.7876    7.1749   -2.5672 C.3       1 <0>         0.0236
     26 C23         2.5875    1.0077   -0.7629 C.ar      1 <0>        -0.0128
     27 C24         1.4220    1.4956   -1.3556 C.ar      1 <0>        -0.1208
     28 C25         0.3104    0.6844   -1.4546 C.ar      1 <0>        -0.1141
     29 C26         0.3493   -0.6099   -0.9675 C.ar      1 <0>        -0.1209
     30 C27         1.5013   -1.0994   -0.3780 C.ar      1 <0>        -0.1135
     31 C28         2.6199   -0.2987   -0.2731 C.ar      1 <0>        -0.1027
     32 C29         9.1787    4.2106    0.1139 C.2       1 <0>         0.1429
     33 N2         10.0103    3.2604   -0.2161 N.2       1 <0>        -0.4523
     34 C30        11.4512    3.4520   -0.0335 C.3       1 <0>         0.0576
     35 C31        12.1705    3.2081   -1.3616 C.3       1 <0>        -0.1008
     36 C32        13.6753    3.4081   -1.1708 C.3       1 <0>        -0.1186
     37 C33        14.1921    2.4211   -0.1222 C.3       1 <0>        -0.1205
     38 C34        13.4728    2.6651    1.2060 C.3       1 <0>        -0.1183
     39 C35        11.9680    2.4650    1.0152 C.3       1 <0>        -0.1010
     40 H1          6.7338   -0.2291   -6.5352 H         1 <0>         0.0676
     41 H2          7.6274    1.2609   -6.9220 H         1 <0>         0.0634
     42 H3          8.4990   -0.2823   -6.7575 H         1 <0>         0.0643
     43 H4          9.0798   -1.1494   -4.6089 H         1 <0>         0.1218
     44 H5          9.3976   -0.7208   -2.2066 H         1 <0>         0.1218
     45 H6          6.9807    2.7942   -2.5246 H         1 <0>         0.1237
     46 H7          6.6781    2.3615   -4.9281 H         1 <0>         0.1158
     47 H8          7.3855    6.0693    0.1194 H         1 <0>         0.0877
     48 H9          6.5529    5.1024    1.3489 H         1 <0>         0.0835
     49 H10         5.8715    5.3747   -1.5962 H         1 <0>         0.0828
     50 H11         4.8616    5.7784   -0.1863 H         1 <0>         0.0826
     51 H12         5.3925    0.4124   -0.4178 H         1 <0>         0.1460
     52 H13         3.2223    4.7322   -2.8217 H         1 <0>         0.1330
     53 H14         1.2329    6.1524   -3.1052 H         1 <0>         0.1392
     54 H15        -0.1386    5.0090    0.7776 H         1 <0>         0.1424
     55 H16         1.8461    3.5819    1.0594 H         1 <0>         0.1372
     56 H17        -0.8148    6.4692   -3.3975 H         1 <0>         0.0588
     57 H18        -1.7049    7.7637   -2.5607 H         1 <0>         0.1049
     58 H19         0.0693    7.8386   -2.6824 H         1 <0>         0.0589
     59 H20         1.3905    2.5057   -1.7366 H         1 <0>         0.1216
     60 H21        -0.5906    1.0592   -1.9174 H         1 <0>         0.1211
     61 H22        -0.5236   -1.2409   -1.0474 H         1 <0>         0.1223
     62 H23         1.5251   -2.1106    0.0006 H         1 <0>         0.1258
     63 H24         3.5185   -0.6819    0.1872 H         1 <0>         0.1270
     64 H25         9.5554    5.1667    0.4462 H         1 <0>         0.0949
     65 H26        11.6426    4.4714    0.3016 H         1 <0>         0.0437
     66 H27        11.9791    2.1886   -1.6966 H         1 <0>         0.0720
     67 H28        11.8023    3.9112   -2.1087 H         1 <0>         0.0566
     68 H29        13.8668    4.4275   -0.8358 H         1 <0>         0.0594
     69 H30        14.1878    3.2343   -2.1170 H         1 <0>         0.0641
     70 H31        15.2642    2.5637    0.0137 H         1 <0>         0.0613
     71 H32        14.0007    1.4017   -0.4572 H         1 <0>         0.0636
     72 H33        13.6642    3.6845    1.5410 H         1 <0>         0.0598
     73 H34        13.8410    1.9619    1.9531 H         1 <0>         0.0651
     74 H35        11.4555    2.6388    1.9614 H         1 <0>         0.0582
     75 H36        11.7766    1.4456    0.6802 H         1 <0>         0.0733
@<TRIPOS>BOND
     1    1    2 1
     2    1   40 1
     3    1   41 1
     4    1   42 1
     5    2    7 ar
     6    2    3 ar
     7    3    4 ar
     8    3   43 1
     9    4    5 ar
    10    4   44 1
    11    5    6 ar
    12    5    8 1
    13    6    7 ar
    14    6   45 1
    15    7   46 1
    16    8    9 1
    17    9   14 1
    18    9   10 2
    19   10   11 1
    20   10   32 1
    21   11   12 1
    22   11   47 1
    23   11   48 1
    24   12   13 1
    25   12   49 1
    26   12   50 1
    27   13   17 1
    28   13   14 2
    29   14   15 1
    30   15   16 2
    31   15   51 1
    32   16   17 1
    33   16   26 1
    34   17   18 1
    35   18   23 ar
    36   18   19 ar
    37   19   20 ar
    38   19   52 1
    39   20   21 ar
    40   20   53 1
    41   21   22 ar
    42   21   24 1
    43   22   23 ar
    44   22   54 1
    45   23   55 1
    46   24   25 1
    47   25   56 1
    48   25   57 1
    49   25   58 1
    50   26   31 ar
    51   26   27 ar
    52   27   28 ar
    53   27   59 1
    54   28   29 ar
    55   28   60 1
    56   29   30 ar
    57   29   61 1
    58   30   31 ar
    59   30   62 1
    60   31   63 1
    61   32   33 2
    62   32   64 1
    63   33   34 1
    64   34   39 1
    65   34   35 1
    66   34   65 1
    67   35   36 1
    68   35   66 1
    69   35   67 1
    70   36   37 1
    71   36   68 1
    72   36   69 1
    73   37   38 1
    74   37   70 1
    75   37   71 1
    76   38   39 1
    77   38   72 1
    78   38   73 1
    79   39   74 1
    80   39   75 1
@<TRIPOS>MOLECULE
ZINC02679317
   53    57     0     0     0
SMALL
USER_CHARGES
2-[2-(4-chlorophenyl)-2-oxo-ethyl]sulfanyl-3-phenyl-5-(p-tolyl)thieno[3,2-e]pyrimidin-4-one
@<TRIPOS>ATOM
      1 C1          9.0840   12.9483   -3.2723 C.3       1 <0>        -0.1163
      2 C2          8.7028   11.6177   -2.6766 C.ar      1 <0>        -0.0776
      3 C3          9.4921   11.0526   -1.6909 C.ar      1 <0>        -0.1279
      4 C4          9.1482    9.8341   -1.1420 C.ar      1 <0>        -0.0973
      5 C5          8.0028    9.1724   -1.5826 C.ar      1 <0>        -0.0524
      6 C6          7.2141    9.7444   -2.5800 C.ar      1 <0>        -0.0530
      7 C7          7.5651   10.9658   -3.1178 C.ar      1 <0>        -0.1234
      8 C8          7.6283    7.8632   -0.9974 C.2       1 <0>        -0.0071
      9 C9          8.5369    6.8640   -0.9054 C.2       1 <0>        -0.1837
     10 S1          7.6170    5.5361   -0.1522 S.3       1 <0>         0.1534
     11 C10         6.0472    6.3451    0.0209 C.2       1 <0>         0.1187
     12 C11         6.2727    7.6271   -0.5098 C.2       1 <0>        -0.2471
     13 C12         5.1521    8.5130   -0.4973 C.2       1 <0>         0.5576
     14 O1          5.2555    9.6451   -0.9380 O.2       1 <0>        -0.4894
     15 N1          3.9791    8.0805    0.0004 N.am      1 <0>        -0.4676
     16 C13         3.8468    6.8165    0.5032 C.2       1 <0>         0.3690
     17 N2          4.8650    5.9803    0.5036 N.2       1 <0>        -0.5021
     18 S2          2.2935    6.2964    1.1522 S.3       1 <0>         0.0993
     19 C14         2.7081    4.6038    1.6415 C.3       1 <0>        -0.1704
     20 C15         1.4939    3.9424    2.2409 C.2       1 <0>         0.4168
     21 O2          0.4511    4.5550    2.3287 O.2       1 <0>        -0.4279
     22 C16         1.5737    2.5539    2.7196 C.ar      1 <0>        -0.1640
     23 C17         0.4486    1.9367    3.2766 C.ar      1 <0>        -0.0414
     24 C18         0.5306    0.6353    3.7226 C.ar      1 <0>        -0.1220
     25 C19         1.7238   -0.0617    3.6203 C.ar      1 <0>        -0.0010
     26 C20         2.8423    0.5431    3.0696 C.ar      1 <0>        -0.1217
     27 C21         2.7752    1.8441    2.6199 C.ar      1 <0>        -0.0570
     28 Cl1         1.8181   -1.7005    4.1852 Cl        1 <0>        -0.0542
     29 C22         2.8753    8.9434    0.0089 C.ar      1 <0>         0.0841
     30 C23         2.0098    8.9765   -1.0762 C.ar      1 <0>        -0.0858
     31 C24         0.9190    9.8237   -1.0622 C.ar      1 <0>        -0.1085
     32 C25         0.6953   10.6470    0.0260 C.ar      1 <0>        -0.0941
     33 C26         1.5589   10.6208    1.1056 C.ar      1 <0>        -0.1083
     34 C27         2.6479    9.7713    1.1001 C.ar      1 <0>        -0.0858
     35 H1          9.7301   12.7883   -4.1355 H         1 <0>         0.0710
     36 H2          8.1840   13.4775   -3.5854 H         1 <0>         0.0660
     37 H3          9.6137   13.5417   -2.5271 H         1 <0>         0.0662
     38 H4         10.3793   11.5659   -1.3507 H         1 <0>         0.1226
     39 H5          9.7654    9.3937   -0.3728 H         1 <0>         0.1218
     40 H6          6.3282    9.2343   -2.9284 H         1 <0>         0.1152
     41 H7          6.9528   11.4118   -3.8875 H         1 <0>         0.1204
     42 H8          9.5716    6.8699   -1.2149 H         1 <0>         0.1996
     43 H9          3.4449    4.6232    2.3173 H         1 <0>         0.1239
     44 H10         3.0329    4.0417    0.7659 H         1 <0>         0.1408
     45 H11        -0.4832    2.4774    3.3529 H         1 <0>         0.1471
     46 H12        -0.3370    0.1577    4.1532 H         1 <0>         0.1442
     47 H13         3.7690   -0.0062    2.9930 H         1 <0>         0.1444
     48 H14         3.6478    2.3144    2.1913 H         1 <0>         0.1450
     49 H15         2.1868    8.3372   -1.9285 H         1 <0>         0.1277
     50 H16         0.2427    9.8464   -1.9039 H         1 <0>         0.1356
     51 H17        -0.1560   11.3116    0.0329 H         1 <0>         0.1334
     52 H18         1.3815   11.2650    1.9541 H         1 <0>         0.1355
     53 H19         3.3217    9.7508    1.9439 H         1 <0>         0.1275
@<TRIPOS>BOND
     1    1    2 1
     2    1   35 1
     3    1   36 1
     4    1   37 1
     5    2    7 ar
     6    2    3 ar
     7    3    4 ar
     8    3   38 1
     9    4    5 ar
    10    4   39 1
    11    5    6 ar
    12    5    8 1
    13    6    7 ar
    14    6   40 1
    15    7   41 1
    16    8   12 1
    17    8    9 2
    18    9   10 1
    19    9   42 1
    20   10   11 1
    21   11   17 1
    22   11   12 2
    23   12   13 1
    24   13   14 2
    25   13   15 am
    26   15   16 1
    27   15   29 1
    28   16   17 2
    29   16   18 1
    30   18   19 1
    31   19   20 1
    32   19   43 1
    33   19   44 1
    34   20   21 2
    35   20   22 1
    36   22   27 ar
    37   22   23 ar
    38   23   24 ar
    39   23   45 1
    40   24   25 ar
    41   24   46 1
    42   25   26 ar
    43   25   28 1
    44   26   27 ar
    45   26   47 1
    46   27   48 1
    47   29   34 ar
    48   29   30 ar
    49   30   31 ar
    50   30   49 1
    51   31   32 ar
    52   31   50 1
    53   32   33 ar
    54   32   51 1
    55   33   34 ar
    56   33   52 1
    57   34   53 1
@<TRIPOS>MOLECULE
ZINC16881352
   72    75     0     0     0
SMALL
USER_CHARGES
3,5-bis[(2,5-dimethylphenyl)methyl]-2-[(2,4-dimethylphenyl)methylsulfanyl]-6-methyl-pyrimidin-4-one
@<TRIPOS>ATOM
      1 C1         -7.5093    4.2401   -6.6957 C.3       1 <0>        -0.1190
      2 C2         -7.1879    4.6971   -5.2961 C.ar      1 <0>        -0.0686
      3 C3         -8.1640    4.6659   -4.3174 C.ar      1 <0>        -0.1270
      4 C4         -7.8693    5.0855   -3.0339 C.ar      1 <0>        -0.0892
      5 C5         -6.5985    5.5364   -2.7286 C.ar      1 <0>        -0.0974
      6 C6         -5.6242    5.5726   -3.7083 C.ar      1 <0>        -0.0561
      7 C7         -5.9175    5.1479   -4.9909 C.ar      1 <0>        -0.1224
      8 C8         -4.2407    6.0700   -3.3771 C.3       1 <0>        -0.1234
      9 C9         -6.2774    5.9943   -1.3292 C.3       1 <0>        -0.0637
     10 S1         -5.6842    4.5885   -0.3556 S.3       1 <0>         0.0168
     11 C10        -5.3928    5.3866    1.1880 C.2       1 <0>         0.3614
     12 N1         -5.6347    6.6780    1.3062 N.2       1 <0>        -0.5387
     13 C11        -5.4287    7.3187    2.4539 C.2       1 <0>         0.1937
     14 C12        -4.9575    6.6414    3.5416 C.2       1 <0>        -0.2614
     15 C13        -4.7021    5.2637    3.4265 C.2       1 <0>         0.5316
     16 O1         -4.2853    4.6269    4.3801 O.2       1 <0>        -0.5188
     17 N2         -4.9220    4.6598    2.2391 N.am      1 <0>        -0.5058
     18 C14        -4.6607    3.2267    2.0836 C.3       1 <0>         0.1294
     19 C15        -3.2571    3.0244    1.5736 C.ar      1 <0>        -0.0959
     20 C16        -2.4334    4.1151    1.3652 C.ar      1 <0>        -0.1015
     21 C17        -1.1479    3.9299    0.8925 C.ar      1 <0>        -0.0836
     22 C18        -0.6822    2.6533    0.6377 C.ar      1 <0>        -0.1127
     23 C19        -1.5042    1.5627    0.8501 C.ar      1 <0>        -0.1095
     24 C20        -2.7918    1.7483    1.3184 C.ar      1 <0>        -0.0772
     25 C21        -3.6880    0.5591    1.5500 C.3       1 <0>        -0.1206
     26 C22        -0.2516    5.1191    0.6608 C.3       1 <0>        -0.1148
     27 C23        -4.7203    7.3579    4.8460 C.3       1 <0>        -0.0108
     28 C24        -5.9401    7.2254    5.7210 C.ar      1 <0>        -0.0653
     29 C25        -6.9997    6.4355    5.3149 C.ar      1 <0>        -0.1053
     30 C26        -8.1182    6.3137    6.1175 C.ar      1 <0>        -0.0900
     31 C27        -8.1776    6.9817    7.3265 C.ar      1 <0>        -0.1224
     32 C28        -7.1186    7.7717    7.7323 C.ar      1 <0>        -0.1128
     33 C29        -5.9973    7.8891    6.9320 C.ar      1 <0>        -0.0912
     34 C30        -4.8398    8.7451    7.3775 C.3       1 <0>        -0.1160
     35 C31        -9.2729    5.4523    5.6751 C.3       1 <0>        -0.1135
     36 C32        -5.7163    8.7946    2.5536 C.3       1 <0>        -0.1090
     37 H1         -7.8664    5.0871   -7.2814 H         1 <0>         0.0734
     38 H2         -6.6118    3.8304   -7.1592 H         1 <0>         0.0681
     39 H3         -8.2820    3.4723   -6.6587 H         1 <0>         0.0685
     40 H4         -9.1568    4.3139   -4.5559 H         1 <0>         0.1254
     41 H5         -8.6319    5.0614   -2.2695 H         1 <0>         0.1260
     42 H6         -5.1551    5.1727   -5.7555 H         1 <0>         0.1253
     43 H7         -3.6228    5.2339   -3.0496 H         1 <0>         0.0770
     44 H8         -3.7967    6.5252   -4.2623 H         1 <0>         0.0700
     45 H9         -4.3021    6.8106   -2.5797 H         1 <0>         0.0697
     46 H10        -7.1750    6.4042   -0.8661 H         1 <0>         0.1089
     47 H11        -5.5048    6.7623   -1.3666 H         1 <0>         0.1136
     48 H12        -5.3701    2.8030    1.3728 H         1 <0>         0.1081
     49 H13        -4.7720    2.7304    3.0477 H         1 <0>         0.1203
     50 H14        -2.7956    5.1120    1.5685 H         1 <0>         0.1080
     51 H15         0.3237    2.5084    0.2722 H         1 <0>         0.1240
     52 H16        -1.1406    0.5655    0.6507 H         1 <0>         0.1262
     53 H17        -3.6351    0.2628    2.5977 H         1 <0>         0.0746
     54 H18        -4.7151    0.8238    1.2987 H         1 <0>         0.0663
     55 H19        -3.3621   -0.2695    0.9213 H         1 <0>         0.0714
     56 H20        -0.3767    5.4745   -0.3620 H         1 <0>         0.0714
     57 H21         0.7867    4.8281    0.8200 H         1 <0>         0.0685
     58 H22        -0.5167    5.9149    1.3569 H         1 <0>         0.0630
     59 H23        -3.8610    6.9172    5.3515 H         1 <0>         0.0906
     60 H24        -4.5257    8.4125    4.6511 H         1 <0>         0.0885
     61 H25        -6.9531    5.9133    4.3706 H         1 <0>         0.1082
     62 H26        -9.0517    6.8865    7.9537 H         1 <0>         0.1200
     63 H27        -7.1652    8.2939    8.6765 H         1 <0>         0.1216
     64 H28        -4.9338    9.7392    6.9405 H         1 <0>         0.0703
     65 H29        -4.8437    8.8242    8.4646 H         1 <0>         0.0656
     66 H30        -3.9048    8.2910    7.0496 H         1 <0>         0.0675
     67 H31        -9.1267    4.4346    6.0372 H         1 <0>         0.0687
     68 H32       -10.2016    5.8527    6.0816 H         1 <0>         0.0668
     69 H33        -9.3256    5.4464    4.5864 H         1 <0>         0.0612
     70 H34        -6.0823    9.1591    1.5938 H         1 <0>         0.0810
     71 H35        -6.4723    8.9665    3.3198 H         1 <0>         0.0864
     72 H36        -4.8024    9.3258    2.8194 H         1 <0>         0.0862
@<TRIPOS>BOND
     1    1    2 1
     2    1   37 1
     3    1   38 1
     4    1   39 1
     5    2    7 ar
     6    2    3 ar
     7    3    4 ar
     8    3   40 1
     9    4    5 ar
    10    4   41 1
    11    5    6 ar
    12    5    9 1
    13    6    7 ar
    14    6    8 1
    15    7   42 1
    16    8   43 1
    17    8   44 1
    18    8   45 1
    19    9   10 1
    20    9   46 1
    21    9   47 1
    22   10   11 1
    23   11   17 1
    24   11   12 2
    25   12   13 1
    26   13   14 2
    27   13   36 1
    28   14   15 1
    29   14   27 1
    30   15   16 2
    31   15   17 am
    32   17   18 1
    33   18   19 1
    34   18   48 1
    35   18   49 1
    36   19   24 ar
    37   19   20 ar
    38   20   21 ar
    39   20   50 1
    40   21   22 ar
    41   21   26 1
    42   22   23 ar
    43   22   51 1
    44   23   24 ar
    45   23   52 1
    46   24   25 1
    47   25   53 1
    48   25   54 1
    49   25   55 1
    50   26   56 1
    51   26   57 1
    52   26   58 1
    53   27   28 1
    54   27   59 1
    55   27   60 1
    56   28   33 ar
    57   28   29 ar
    58   29   30 ar
    59   29   61 1
    60   30   31 ar
    61   30   35 1
    62   31   32 ar
    63   31   62 1
    64   32   33 ar
    65   32   63 1
    66   33   34 1
    67   34   64 1
    68   34   65 1
    69   34   66 1
    70   35   67 1
    71   35   68 1
    72   35   69 1
    73   36   70 1
    74   36   71 1
    75   36   72 1
@<TRIPOS>MOLECULE
ZINC35770599
   76    81     0     0     0
SMALL
USER_CHARGES

@<TRIPOS>ATOM
      1 C1          1.9877   -2.5757    2.9202 C.3       1 <0>        -0.1613
      2 C2          2.4690   -1.3665    2.1157 C.3       1 <0>        -0.1385
      3 C3          1.2931   -0.7691    1.3402 C.3       1 <0>         0.1043
      4 H1          0.8586   -1.5322    0.6944 H         1 <0>         0.1274
      5 C4          1.7868    0.4006    0.4865 C.3       1 <0>        -0.1652
      6 N1          0.2785   -0.2916    2.2829 N.am      1 <0>        -0.5858
      7 C5          0.6531    0.6324    3.3563 C.3       1 <0>         0.0971
      8 C6          0.3801    2.0483    2.9185 C.2       1 <0>         0.5077
      9 O1         -0.1730    2.2597    1.8600 O.2       1 <0>        -0.5159
     10 N2          0.7506    3.0796    3.7031 N.am      1 <0>        -0.6054
     11 C7          1.4273    2.8351    4.9856 C.3       1 <0>         0.1007
     12 C8          2.8493    3.4106    4.8982 C.3       1 <0>        -0.0576
     13 C9          2.7846    4.7482    4.2357 C.2       1 <0>        -0.1457
     14 C10         1.7641    5.2697    3.5022 C.2       1 <0>        -0.1217
     15 C11         1.9577    6.5478    2.9805 C.2       1 <0>        -0.1407
     16 C12         3.1145    7.2074    3.2183 C.2       1 <0>        -0.1701
     17 S1          4.0122    6.0281    4.2158 S.3       1 <0>         0.0464
     18 C13         0.4895    4.4639    3.2862 C.3       1 <0>         0.2499
     19 H2          0.2140    4.4862    2.2318 H         1 <0>         0.1135
     20 C14        -0.6242    5.0460    4.1181 C.ar      1 <0>        -0.0967
     21 C15        -0.4614    5.1970    5.4825 C.ar      1 <0>        -0.1002
     22 C16        -1.4829    5.7309    6.2455 C.ar      1 <0>        -0.1223
     23 C17        -2.6671    6.1142    5.6441 C.ar      1 <0>        -0.0798
     24 C18        -2.8296    5.9640    4.2796 C.ar      1 <0>        -0.1192
     25 C19        -1.8064    5.4341    3.5159 C.ar      1 <0>        -0.0947
     26 C20        -3.7812    6.6953    6.4762 C.3       1 <0>        -0.1168
     27 C21        -0.9995   -0.7023    2.1627 C.2       1 <0>         0.5340
     28 O2         -1.8537   -0.2483    2.8942 O.2       1 <0>        -0.5298
     29 C22        -1.3672   -1.7256    1.1193 C.3       1 <0>        -0.0645
     30 C23        -0.5689   -3.0085    1.3596 C.3       1 <0>        -0.1259
     31 C24        -0.9421   -4.0474    0.3002 C.3       1 <0>        -0.0841
     32 C25        -2.4385   -4.3533    0.3909 C.3       1 <0>        -0.1095
     33 C26        -3.2368   -3.0703    0.1505 C.3       1 <0>        -0.0863
     34 C27        -2.8635   -2.0314    1.2099 C.3       1 <0>        -0.0860
     35 C28        -2.9119   -2.5205   -1.2398 C.3       1 <0>        -0.1100
     36 C29        -1.4155   -2.2146   -1.3304 C.3       1 <0>        -0.0842
     37 C30        -0.6173   -3.4975   -1.0901 C.3       1 <0>        -0.1105
     38 C31        -1.0423   -1.1757   -0.2711 C.3       1 <0>        -0.1183
     39 H3          1.7189   -3.3823    2.2380 H         1 <0>         0.0634
     40 H4          2.7848   -2.9113    3.5836 H         1 <0>         0.0575
     41 H5          1.1165   -2.2949    3.5120 H         1 <0>         0.0580
     42 H6          2.8749   -0.6166    2.7947 H         1 <0>         0.0657
     43 H7          3.2436   -1.6805    1.4162 H         1 <0>         0.0793
     44 H8          2.4683    0.0295   -0.2790 H         1 <0>         0.0657
     45 H9          0.9358    0.8875    0.0102 H         1 <0>         0.0722
     46 H10         2.3082    1.1182    1.1200 H         1 <0>         0.0534
     47 H11         0.0684    0.4089    4.2487 H         1 <0>         0.1091
     48 H12         1.7140    0.5192    3.5794 H         1 <0>         0.1074
     49 H13         0.8803    3.3278    5.7894 H         1 <0>         0.0884
     50 H14         1.4759    1.7631    5.1768 H         1 <0>         0.0960
     51 H15         3.2621    3.5188    5.9012 H         1 <0>         0.0962
     52 H16         3.4789    2.7419    4.3113 H         1 <0>         0.0894
     53 H17         1.1843    7.0112    2.3861 H         1 <0>         0.1318
     54 H18         3.4170    8.1908    2.8900 H         1 <0>         0.1877
     55 H19         0.4638    4.8975    5.9523 H         1 <0>         0.1222
     56 H20        -1.3560    5.8482    7.3116 H         1 <0>         0.1218
     57 H21        -3.7549    6.2631    3.8098 H         1 <0>         0.1229
     58 H22        -1.9319    5.3202    2.4493 H         1 <0>         0.1223
     59 H23        -3.6690    7.7783    6.5280 H         1 <0>         0.0713
     60 H24        -4.7406    6.4508    6.0204 H         1 <0>         0.0670
     61 H25        -3.7396    6.2772    7.4819 H         1 <0>         0.0667
     62 H26         0.4971   -2.7906    1.2951 H         1 <0>         0.0912
     63 H27        -0.8003   -3.4002    2.3501 H         1 <0>         0.0681
     64 H28        -0.3734   -4.9614    0.4715 H         1 <0>         0.0742
     65 H29        -2.7044   -5.0934   -0.3638 H         1 <0>         0.0639
     66 H30        -2.6700   -4.7450    1.3813 H         1 <0>         0.0625
     67 H31        -4.3028   -3.2883    0.2151 H         1 <0>         0.0733
     68 H32        -3.0950   -2.4232    2.2004 H         1 <0>         0.0675
     69 H33        -3.4322   -1.1174    1.0386 H         1 <0>         0.0684
     70 H34        -3.1778   -3.2606   -1.9945 H         1 <0>         0.0639
     71 H35        -3.4806   -1.6065   -1.4110 H         1 <0>         0.0627
     72 H36        -1.1841   -1.8228   -2.3209 H         1 <0>         0.0742
     73 H37         0.4488   -3.2796   -1.1546 H         1 <0>         0.0620
     74 H38        -0.8832   -4.2377   -1.8448 H         1 <0>         0.0660
     75 H39        -1.6110   -0.2617   -0.4423 H         1 <0>         0.0694
     76 H40         0.0238   -0.9578   -0.3356 H         1 <0>         0.0832
@<TRIPOS>BOND
     1    1    2 1
     2    1   39 1
     3    1   40 1
     4    1   41 1
     5    2    3 1
     6    2   42 1
     7    2   43 1
     8    3    4 1
     9    3    5 1
    10    3    6 1
    11    5   44 1
    12    5   45 1
    13    5   46 1
    14    6    7 1
    15    6   27 am
    16    7    8 1
    17    7   47 1
    18    7   48 1
    19    8    9 2
    20    8   10 am
    21   10   18 1
    22   10   11 1
    23   11   12 1
    24   11   49 1
    25   11   50 1
    26   12   13 1
    27   12   51 1
    28   12   52 1
    29   13   17 1
    30   13   14 2
    31   14   15 1
    32   14   18 1
    33   15   16 2
    34   15   53 1
    35   16   17 1
    36   16   54 1
    37   18   19 1
    38   18   20 1
    39   20   25 ar
    40   20   21 ar
    41   21   22 ar
    42   21   55 1
    43   22   23 ar
    44   22   56 1
    45   23   24 ar
    46   23   26 1
    47   24   25 ar
    48   24   57 1
    49   25   58 1
    50   26   59 1
    51   26   60 1
    52   26   61 1
    53   27   28 2
    54   27   29 1
    55   29   34 1
    56   29   38 1
    57   29   30 1
    58   30   31 1
    59   30   62 1
    60   30   63 1
    61   31   37 1
    62   31   32 1
    63   31   64 1
    64   32   33 1
    65   32   65 1
    66   32   66 1
    67   33   34 1
    68   33   35 1
    69   33   67 1
    70   34   68 1
    71   34   69 1
    72   35   36 1
    73   35   70 1
    74   35   71 1
    75   36   37 1
    76   36   38 1
    77   36   72 1
    78   37   73 1
    79   37   74 1
    80   38   75 1
    81   38   76 1
@<TRIPOS>MOLECULE
ZINC40032811
   66    70     0     0     0
SMALL
USER_CHARGES

@<TRIPOS>ATOM
      1 C1         -1.2030    2.7498   -2.7874 C.3       1 <0>        -0.1517
      2 C2         -0.8715    1.4940   -1.9786 C.3       1 <0>        -0.1196
      3 C3         -2.1685    0.7877   -1.5788 C.3       1 <0>        -0.1033
      4 C4         -1.8370   -0.4680   -0.7701 C.3       1 <0>         0.0133
      5 C5         -3.1350   -1.1530   -0.3497 C.3       1 <0>        -0.0765
      6 C6         -3.8304   -1.7470   -1.5447 C.ar      1 <0>        -0.0453
      7 C7         -5.2080   -1.7519   -1.6208 C.ar      1 <0>        -0.1228
      8 C8         -5.8396   -2.3040   -2.7209 C.ar      1 <0>        -0.0962
      9 C9         -5.0981   -2.8545   -3.7513 C.ar      1 <0>        -0.1322
     10 C10        -3.7188   -2.8544   -3.6882 C.ar      1 <0>        -0.0714
     11 C11        -3.0796   -2.2985   -2.5839 C.ar      1 <0>        -0.0569
     12 C12        -1.6021   -2.2751   -2.4922 C.2       1 <0>         0.2281
     13 C13        -0.9991   -1.3906   -1.6092 C.2       1 <0>        -0.2324
     14 C14         0.3980   -1.3755   -1.5173 C.2       1 <0>         0.5367
     15 O1          0.9636   -0.6132   -0.7501 O.2       1 <0>        -0.5050
     16 N1          1.1065   -2.2224   -2.2950 N.am      1 <0>        -0.4612
     17 C15         0.4646   -3.0685   -3.1512 C.2       1 <0>         0.3573
     18 N2         -0.8502   -3.0881   -3.2413 N.2       1 <0>        -0.5334
     19 S1          1.4139   -4.1584   -4.1590 S.3       1 <0>         0.0730
     20 C16         0.1690   -5.0709   -5.1120 C.3       1 <0>        -0.1770
     21 C17         0.8563   -6.0512   -6.0273 C.2       1 <0>         0.4197
     22 O2          2.0666   -6.1268   -6.0359 O.2       1 <0>        -0.4293
     23 C18         0.0595   -6.9158   -6.9099 C.ar      1 <0>        -0.1787
     24 C19        -1.3371   -6.8270   -6.9067 C.ar      1 <0>        -0.0405
     25 C20        -2.0777   -7.6400   -7.7360 C.ar      1 <0>        -0.1652
     26 C21        -1.4422   -8.5456   -8.5728 C.ar      1 <0>         0.1382
     27 C22        -0.0581   -8.6387   -8.5809 C.ar      1 <0>        -0.1654
     28 C23         0.6946   -7.8271   -7.7610 C.ar      1 <0>        -0.0248
     29 F1         -2.1744   -9.3408   -9.3832 F         1 <0>        -0.1297
     30 C24         2.5053   -2.2317   -2.2224 C.ar      1 <0>         0.0800
     31 C25         3.2503   -1.3992   -3.0472 C.ar      1 <0>        -0.0807
     32 C26         4.6294   -1.4108   -2.9733 C.ar      1 <0>        -0.1107
     33 C27         5.2683   -2.2501   -2.0792 C.ar      1 <0>        -0.0608
     34 C28         4.5293   -3.0803   -1.2565 C.ar      1 <0>        -0.1107
     35 C29         3.1497   -3.0693   -1.3216 C.ar      1 <0>        -0.0811
     36 C30         6.7733   -2.2605   -2.0016 C.3       1 <0>        -0.1202
     37 C31        -1.0503   -0.0694    0.4802 C.3       1 <0>        -0.1408
     38 H1         -0.2790    3.2530   -3.0722 H         1 <0>         0.0519
     39 H2         -1.7552    2.4690   -3.6843 H         1 <0>         0.0497
     40 H3         -1.8111    3.4219   -2.1819 H         1 <0>         0.0544
     41 H4         -0.2635    0.8219   -2.5841 H         1 <0>         0.0495
     42 H5         -0.3194    1.7748   -1.0817 H         1 <0>         0.0718
     43 H6         -2.7766    1.4599   -0.9734 H         1 <0>         0.0690
     44 H7         -2.7207    0.5070   -2.4757 H         1 <0>         0.0605
     45 H8         -2.9087   -1.9446    0.3647 H         1 <0>         0.0820
     46 H9         -3.7914   -0.4214    0.1213 H         1 <0>         0.0878
     47 H10        -5.7940   -1.3245   -0.8206 H         1 <0>         0.1288
     48 H11        -6.9182   -2.3058   -2.7756 H         1 <0>         0.1263
     49 H12        -5.5989   -3.2851   -4.6058 H         1 <0>         0.1272
     50 H13        -3.1389   -3.2841   -4.4915 H         1 <0>         0.1305
     51 H14        -0.4878   -5.6101   -4.4294 H         1 <0>         0.1371
     52 H15        -0.4193   -4.3709   -5.7053 H         1 <0>         0.1364
     53 H16        -1.8331   -6.1228   -6.2551 H         1 <0>         0.1450
     54 H17        -3.1556   -7.5725   -7.7345 H         1 <0>         0.1461
     55 H18         0.4305   -9.3459   -9.2348 H         1 <0>         0.1462
     56 H19         1.7722   -7.8974   -7.7715 H         1 <0>         0.1476
     57 H20         2.7518   -0.7437   -3.7459 H         1 <0>         0.1266
     58 H21         5.2094   -0.7638   -3.6148 H         1 <0>         0.1339
     59 H22         5.0312   -3.7347   -0.5593 H         1 <0>         0.1339
     60 H23         2.5729   -3.7146   -0.6757 H         1 <0>         0.1266
     61 H24         7.1044   -1.5256   -1.2678 H         1 <0>         0.0763
     62 H25         7.1149   -3.2516   -1.7028 H         1 <0>         0.0713
     63 H26         7.1892   -2.0120   -2.9779 H         1 <0>         0.0713
     64 H27        -1.7072    0.4622    1.1687 H         1 <0>         0.0484
     65 H28        -0.6625   -0.9647    0.9662 H         1 <0>         0.0495
     66 H29        -0.2208    0.5782    0.1964 H         1 <0>         0.0918
@<TRIPOS>BOND
     1    1    2 1
     2    1   38 1
     3    1   39 1
     4    1   40 1
     5    2    3 1
     6    2   41 1
     7    2   42 1
     8    3    4 1
     9    3   43 1
    10    3   44 1
    11    4   13 1
    12    4    5 1
    13    4   37 1
    14    5    6 1
    15    5   45 1
    16    5   46 1
    17    6   11 ar
    18    6    7 ar
    19    7    8 ar
    20    7   47 1
    21    8    9 ar
    22    8   48 1
    23    9   10 ar
    24    9   49 1
    25   10   11 ar
    26   10   50 1
    27   11   12 1
    28   12   18 1
    29   12   13 2
    30   13   14 1
    31   14   15 2
    32   14   16 am
    33   16   17 1
    34   16   30 1
    35   17   18 2
    36   17   19 1
    37   19   20 1
    38   20   21 1
    39   20   51 1
    40   20   52 1
    41   21   22 2
    42   21   23 1
    43   23   28 ar
    44   23   24 ar
    45   24   25 ar
    46   24   53 1
    47   25   26 ar
    48   25   54 1
    49   26   27 ar
    50   26   29 1
    51   27   28 ar
    52   27   55 1
    53   28   56 1
    54   30   35 ar
    55   30   31 ar
    56   31   32 ar
    57   31   57 1
    58   32   33 ar
    59   32   58 1
    60   33   34 ar
    61   33   36 1
    62   34   35 ar
    63   34   59 1
    64   35   60 1
    65   36   61 1
    66   36   62 1
    67   36   63 1
    68   37   64 1
    69   37   65 1
    70   37   66 1
@<TRIPOS>MOLECULE
ZINC13343945
   38    39     0     0     0
SMALL
USER_CHARGES
3,5,6-trichloro-4-[(N'E)-N'-[1-[2-(difluoromethoxy)-5-methyl-phenyl]ethylidene]hydrazino]pyridine-2-carboxylic acid
@<TRIPOS>ATOM
      1 C1          9.6516    2.0119   -1.0349 C.3       1 <0>        -0.1101
      2 C2          8.3176    2.7128   -1.0178 C.ar      1 <0>        -0.1138
      3 C3          8.2438    4.0618   -1.3200 C.ar      1 <0>        -0.0723
      4 C4          7.0258    4.7154   -1.3075 C.ar      1 <0>        -0.1901
      5 C5          5.8690    4.0226   -0.9911 C.ar      1 <0>         0.1282
      6 C6          5.9389    2.6570   -0.6840 C.ar      1 <0>        -0.0424
      7 C7          7.1763    2.0093   -0.6945 C.ar      1 <0>        -0.0670
      8 C8          4.7143    1.9099   -0.3460 C.2       1 <0>         0.1014
      9 N1          3.5665    2.5168   -0.3321 N.2       1 <0>        -0.1853
     10 N2          2.4024    1.8066   -0.0108 N.pl3     1 <0>        -0.5681
     11 C9          1.1719    2.4573    0.0041 C.ar      1 <0>         0.2667
     12 C10        -0.0215    1.7317    0.0116 C.ar      1 <0>        -0.1136
     13 C11        -1.2299    2.4221    0.0210 C.ar      1 <0>         0.1679
     14 N3         -1.2505    3.7519    0.0347 N.ar      1 <0>        -0.4292
     15 C12        -0.1431    4.4636    0.0275 C.ar      1 <0>         0.2034
     16 C13         1.0998    3.8496    0.0123 C.ar      1 <0>        -0.1264
     17 Cl1         2.5501    4.8037    0.0030 Cl        1 <0>        -0.0042
     18 Cl2        -0.2405    6.1968    0.0378 Cl        1 <0>        -0.0214
     19 C14        -2.5034    1.6697    0.0228 C.2       1 <0>         0.4991
     20 O1         -2.4912    0.4553    0.0161 O.co2     1 <0>        -0.5933
     21 Cl3         0.0021   -0.0041    0.0020 Cl        1 <0>        -0.0115
     22 C15         4.7942    0.4415   -0.0164 C.3       1 <0>        -0.1507
     23 O2          4.6717    4.6640   -0.9790 O.3       1 <0>        -0.2726
     24 C16         4.6780    6.0559   -1.3025 C.3       1 <0>         0.3958
     25 F1          5.4822    6.7437   -0.3873 F         1 <0>        -0.1981
     26 F2          5.1859    6.2322   -2.5941 F         1 <0>        -0.1960
     27 H1         10.1067    2.0726   -0.0464 H         1 <0>         0.0700
     28 H2          9.5088    0.9657   -1.3055 H         1 <0>         0.0672
     29 H3         10.3041    2.4903   -1.7653 H         1 <0>         0.0663
     30 H4          9.1430    4.6065   -1.5674 H         1 <0>         0.1288
     31 H5          6.9763    5.7679   -1.5444 H         1 <0>         0.1355
     32 H6          7.2386    0.9581   -0.4545 H         1 <0>         0.1384
     33 H7          2.4538    0.8615    0.2014 H         1 <0>         0.3962
     34 H8          4.6798   -0.1426   -0.9295 H         1 <0>         0.0857
     35 H9          5.7615    0.2228    0.4361 H         1 <0>         0.0856
     36 H10         3.9991    0.1823    0.6828 H         1 <0>         0.0687
     37 H11         3.6607    6.4444   -1.2559 H         1 <0>         0.1741
     38 O3         -3.6766    2.3314    0.0319 O.co2     1 <0>        -0.7127
@<TRIPOS>BOND
     1    1    2 1
     2    1   27 1
     3    1   28 1
     4    1   29 1
     5    2    7 ar
     6    2    3 ar
     7    3    4 ar
     8    3   30 1
     9    4    5 ar
    10    4   31 1
    11    5    6 ar
    12    5   23 1
    13    6    7 ar
    14    6    8 1
    15    7   32 1
    16    8    9 2
    17    8   22 1
    18    9   10 1
    19   10   11 1
    20   10   33 1
    21   11   16 ar
    22   11   12 ar
    23   12   13 ar
    24   12   21 1
    25   13   14 ar
    26   13   19 1
    27   14   15 ar
    28   15   16 ar
    29   15   18 1
    30   16   17 1
    31   19   20 2
    32   19   38 1
    33   22   34 1
    34   22   35 1
    35   22   36 1
    36   23   24 1
    37   24   25 1
    38   24   26 1
    39   24   37 1
@<TRIPOS>MOLECULE
ZINC02089161
   58    61     0     0     0
SMALL
USER_CHARGES

@<TRIPOS>ATOM
      1 C1          0.1105   -2.2503    4.7744 C.3       1 <0>        -0.1475
      2 C2          0.6159   -0.8078    4.7067 C.3       1 <0>        -0.0900
      3 C3          1.4371   -0.6213    3.4570 C.ar      1 <0>        -0.0578
      4 C4          2.8076   -0.7892    3.4987 C.ar      1 <0>        -0.1189
      5 C5          3.5617   -0.6182    2.3526 C.ar      1 <0>        -0.0963
      6 C6          2.9469   -0.2783    1.1612 C.ar      1 <0>        -0.1200
      7 C7          1.5773   -0.1086    1.1132 C.ar      1 <0>        -0.0630
      8 C8          0.8164   -0.2861    2.2613 C.ar      1 <0>         0.1011
      9 N1         -0.5743   -0.1212    2.2143 N.pl3     1 <0>        -0.3856
     10 C9         -1.2383    1.0232    2.5561 C.2       1 <0>         0.0124
     11 C10        -2.5588    0.8333    2.3926 C.2       1 <0>        -0.1130
     12 C11        -2.7281   -0.5427    1.9094 C.2       1 <0>        -0.1870
     13 C12        -1.4568   -1.0734    1.8171 C.2       1 <0>         0.0926
     14 C13        -1.1098   -2.4666    1.3592 C.3       1 <0>        -0.0965
     15 C14        -3.9909   -1.2152    1.5856 C.2       1 <0>         0.1248
     16 C15        -5.0121   -0.5121    1.0292 C.2       1 <0>        -0.2375
     17 C16        -5.0251    0.8674    0.5156 C.2       1 <0>         0.5548
     18 O1         -4.0286    1.5665    0.5460 O.2       1 <0>        -0.4671
     19 N2         -6.1666    1.3136    0.0193 N.am      1 <0>        -0.6524
     20 C17        -7.2833    0.5073   -0.0068 C.2       1 <0>         0.4143
     21 N3         -8.4851    0.7888   -0.4597 N.2       1 <0>        -0.4688
     22 C18        -9.5050   -0.1088   -0.2974 C.ar      1 <0>         0.1119
     23 C19        -9.7500   -0.6732    0.9569 C.ar      1 <0>        -0.1349
     24 C20       -10.7799   -1.5769    1.1141 C.ar      1 <0>        -0.0925
     25 C21       -11.5700   -1.9258    0.0330 C.ar      1 <0>        -0.1097
     26 C22       -11.3331   -1.3710   -1.2134 C.ar      1 <0>        -0.0255
     27 C23       -10.3094   -0.4603   -1.3834 C.ar      1 <0>        -0.0601
     28 C24       -10.0564    0.1475   -2.7390 C.3       1 <0>        -0.1164
     29 Cl1       -12.3299   -1.8160   -2.5633 Cl        1 <0>        -0.0592
     30 S1         -6.6979   -1.0161    0.7174 S.3       1 <0>        -0.0413
     31 C25        -0.5925    2.2959    3.0401 C.3       1 <0>        -0.0837
     32 C26         0.9083    0.2628   -0.1851 C.3       1 <0>        -0.1199
     33 H1          0.9540   -2.9353    4.6878 H         1 <0>         0.0561
     34 H2         -0.3943   -2.4142    5.7264 H         1 <0>         0.0614
     35 H3         -0.5881   -2.4292    3.9571 H         1 <0>         0.0585
     36 H4         -0.2340   -0.1255    4.6882 H         1 <0>         0.0769
     37 H5          1.2319   -0.5972    5.5810 H         1 <0>         0.0756
     38 H6          3.2906   -1.0539    4.4277 H         1 <0>         0.1307
     39 H7          4.6331   -0.7500    2.3877 H         1 <0>         0.1301
     40 H8          3.5387   -0.1450    0.2677 H         1 <0>         0.1309
     41 H9         -3.3424    1.5525    2.5801 H         1 <0>         0.1432
     42 H10        -1.1396   -3.1468    2.2103 H         1 <0>         0.0811
     43 H11        -1.8299   -2.7922    0.6084 H         1 <0>         0.0841
     44 H12        -0.1089   -2.4684    0.9275 H         1 <0>         0.0698
     45 H13        -4.1090   -2.2692    1.7893 H         1 <0>         0.1461
     46 H14        -6.2182    2.2173   -0.3294 H         1 <0>         0.4221
     47 H15        -9.1339   -0.4026    1.8017 H         1 <0>         0.1339
     48 H16       -10.9699   -2.0137    2.0834 H         1 <0>         0.1383
     49 H17       -12.3749   -2.6343    0.1619 H         1 <0>         0.1375
     50 H18        -9.3538   -0.4763   -3.2915 H         1 <0>         0.0735
     51 H19       -10.9951    0.2124   -3.2891 H         1 <0>         0.0746
     52 H20        -9.6371    1.1463   -2.6168 H         1 <0>         0.0799
     53 H21        -0.2823    2.8945    2.1836 H         1 <0>         0.0685
     54 H22        -1.3069    2.8610    3.6387 H         1 <0>         0.0799
     55 H23         0.2789    2.0528    3.6481 H         1 <0>         0.0620
     56 H24         0.6316   -0.6436   -0.7235 H         1 <0>         0.0741
     57 H25         0.0136    0.8498    0.0221 H         1 <0>         0.0718
     58 H26         1.5960    0.8508   -0.7929 H         1 <0>         0.0721
@<TRIPOS>BOND
     1    1    2 1
     2    1   33 1
     3    1   34 1
     4    1   35 1
     5    2    3 1
     6    2   36 1
     7    2   37 1
     8    3    8 ar
     9    3    4 ar
    10    4    5 ar
    11    4   38 1
    12    5    6 ar
    13    5   39 1
    14    6    7 ar
    15    6   40 1
    16    7    8 ar
    17    7   32 1
    18    8    9 1
    19    9   13 1
    20    9   10 1
    21   10   11 2
    22   10   31 1
    23   11   12 1
    24   11   41 1
    25   12   13 2
    26   12   15 1
    27   13   14 1
    28   14   42 1
    29   14   43 1
    30   14   44 1
    31   15   16 2
    32   15   45 1
    33   16   30 1
    34   16   17 1
    35   17   18 2
    36   17   19 am
    37   19   20 1
    38   19   46 1
    39   20   21 2
    40   20   30 1
    41   21   22 1
    42   22   27 ar
    43   22   23 ar
    44   23   24 ar
    45   23   47 1
    46   24   25 ar
    47   24   48 1
    48   25   26 ar
    49   25   49 1
    50   26   27 ar
    51   26   29 1
    52   27   28 1
    53   28   50 1
    54   28   51 1
    55   28   52 1
    56   31   53 1
    57   31   54 1
    58   31   55 1
    59   32   56 1
    60   32   57 1
    61   32   58 1
@<TRIPOS>MOLECULE
ZINC36058284
   64    66     0     0     0
SMALL
USER_CHARGES

@<TRIPOS>ATOM
      1 C1         -0.0733   -1.6754    4.5657 C.3       1 <0>        -0.1476
      2 C2          0.2300   -0.1757    4.5724 C.3       1 <0>        -0.1294
      3 C3         -1.0779    0.6085    4.6967 C.3       1 <0>         0.1609
      4 H1         -1.6214    0.2711    5.5792 H         1 <0>         0.0726
      5 C4         -0.7671    2.1008    4.8287 C.3       1 <0>        -0.1592
      6 N1         -1.8971    0.3841    3.5031 N.pl3     1 <0>        -0.7475
      7 C5         -3.2628    0.6083    3.5485 C.2       1 <0>         0.5044
      8 O1         -3.8270    1.1302    4.6648 O.3       1 <0>        -0.7024
      9 C6         -4.0304    0.3077    2.4834 C.2       1 <0>        -0.4662
     10 C7         -5.4925    0.4302    2.5732 C.2       1 <0>         0.2319
     11 C8         -6.0838    0.9696    3.6619 C.2       1 <0>        -0.3072
     12 S1         -7.8101    0.8653    3.2335 S.3       1 <0>         0.1367
     13 C9         -7.6572    0.1531    1.7214 C.2       1 <0>         0.3202
     14 N2         -8.5592   -0.2102    0.8330 N.2       1 <0>        -0.5970
     15 C10        -8.2862   -0.7684   -0.3351 C.2       1 <0>         0.2997
     16 C11        -6.9777   -1.0129   -0.7054 C.2       1 <0>        -0.3911
     17 C12        -5.8854   -0.6220    0.2648 C.3       1 <0>         0.2603
     18 H2         -5.2208    0.0775   -0.2421 H         1 <0>         0.0707
     19 N3         -6.3100    0.0034    1.5456 N.pl3     1 <0>        -0.5121
     20 C13        -5.0889   -1.8594    0.5898 C.ar      1 <0>        -0.0693
     21 C14        -5.6240   -2.8282    1.4180 C.ar      1 <0>        -0.0890
     22 C15        -4.8934   -3.9632    1.7161 C.ar      1 <0>        -0.1207
     23 C16        -3.6278   -4.1296    1.1856 C.ar      1 <0>        -0.0782
     24 C17        -3.0931   -3.1613    0.3566 C.ar      1 <0>        -0.1179
     25 C18        -3.8254   -2.0283    0.0551 C.ar      1 <0>        -0.0717
     26 C19        -2.8309   -5.3665    1.5113 C.3       1 <0>        -0.0536
     27 C20        -2.4089   -6.0578    0.2133 C.3       1 <0>        -0.1413
     28 C21        -1.5854   -4.9753    2.3091 C.3       1 <0>        -0.1410
     29 C22        -6.6731   -1.6034   -1.9379 C.2       1 <0>         0.5363
     30 O2         -7.5694   -1.9108   -2.7044 O.2       1 <0>        -0.5522
     31 O3         -5.3853   -1.8325   -2.2775 O.3       1 <0>        -0.3528
     32 C23        -5.1477   -2.4378   -3.5500 C.3       1 <0>         0.0669
     33 C24        -3.6423   -2.6169   -3.7565 C.3       1 <0>        -0.1494
     34 C25        -9.4100   -1.1406   -1.2676 C.3       1 <0>        -0.0912
     35 H3          0.8584   -2.2341    4.4772 H         1 <0>         0.0457
     36 H4         -0.5741   -1.9489    5.4944 H         1 <0>         0.0515
     37 H5         -0.7202   -1.9115    3.7208 H         1 <0>         0.0592
     38 H6          0.8769    0.0604    5.4173 H         1 <0>         0.0653
     39 H7          0.7308    0.0978    3.6437 H         1 <0>         0.0585
     40 H8         -1.6983    2.6672    4.8287 H         1 <0>         0.0667
     41 H9         -0.2331    2.2795    5.7620 H         1 <0>         0.0465
     42 H10        -0.1484    2.4187    3.9895 H         1 <0>         0.0423
     43 H11        -1.4829    0.0784    2.6809 H         1 <0>         0.3821
     44 H12        -3.5717   -0.0232    1.5634 H         1 <0>         0.0867
     45 H13        -5.6282    1.3620    4.5591 H         1 <0>         0.2370
     46 H14        -6.6128   -2.6981    1.8325 H         1 <0>         0.1019
     47 H15        -5.3112   -4.7197    2.3638 H         1 <0>         0.1113
     48 H16        -2.1041   -3.2911   -0.0577 H         1 <0>         0.1130
     49 H17        -3.4091   -1.2735   -0.5956 H         1 <0>         0.1152
     50 H18        -3.4426   -6.0473    2.1033 H         1 <0>         0.0712
     51 H19        -1.7972   -5.3770   -0.3787 H         1 <0>         0.0559
     52 H20        -1.8325   -6.9524    0.4489 H         1 <0>         0.0526
     53 H21        -3.2962   -6.3365   -0.3551 H         1 <0>         0.0535
     54 H22        -1.8856   -4.5620    3.2720 H         1 <0>         0.0564
     55 H23        -0.9650   -5.8570    2.4696 H         1 <0>         0.0520
     56 H24        -1.0182   -4.2281    1.7540 H         1 <0>         0.0563
     57 H25        -5.6378   -3.4108   -3.5866 H         1 <0>         0.0573
     58 H26        -5.5490   -1.7991   -4.3368 H         1 <0>         0.0571
     59 H27        -3.1523   -1.6440   -3.7199 H         1 <0>         0.0625
     60 H28        -3.2411   -3.2557   -2.9697 H         1 <0>         0.0648
     61 H29        -3.4611   -3.0787   -4.7271 H         1 <0>         0.0704
     62 H30       -10.3637   -0.8760   -0.8110 H         1 <0>         0.0634
     63 H31        -9.2954   -0.6016   -2.2080 H         1 <0>         0.0857
     64 H32        -9.3837   -2.2135   -1.4583 H         1 <0>         0.0854
@<TRIPOS>BOND
     1    1    2 1
     2    1   35 1
     3    1   36 1
     4    1   37 1
     5    2    3 1
     6    2   38 1
     7    2   39 1
     8    3    4 1
     9    3    5 1
    10    3    6 1
    11    5   40 1
    12    5   41 1
    13    5   42 1
    14    6    7 1
    15    6   43 1
    16    7    8 1
    17    7    9 2
    18    9   10 1
    19    9   44 1
    20   10   19 1
    21   10   11 2
    22   11   12 1
    23   11   45 1
    24   12   13 1
    25   13   19 1
    26   13   14 2
    27   14   15 1
    28   15   16 2
    29   15   34 1
    30   16   17 1
    31   16   29 1
    32   17   18 1
    33   17   19 1
    34   17   20 1
    35   20   25 ar
    36   20   21 ar
    37   21   22 ar
    38   21   46 1
    39   22   23 ar
    40   22   47 1
    41   23   24 ar
    42   23   26 1
    43   24   25 ar
    44   24   48 1
    45   25   49 1
    46   26   27 1
    47   26   28 1
    48   26   50 1
    49   27   51 1
    50   27   52 1
    51   27   53 1
    52   28   54 1
    53   28   55 1
    54   28   56 1
    55   29   30 2
    56   29   31 1
    57   31   32 1
    58   32   33 1
    59   32   57 1
    60   32   58 1
    61   33   59 1
    62   33   60 1
    63   33   61 1
    64   34   62 1
    65   34   63 1
    66   34   64 1
@<TRIPOS>MOLECULE
ZINC40401167
   64    66     0     0     0
SMALL
USER_CHARGES

@<TRIPOS>ATOM
      1 C1          4.1944   -2.3909   -1.2274 C.3       1 <0>        -0.1619
      2 C2          3.8439   -0.9376   -1.5531 C.3       1 <0>         0.1299
      3 N1          2.3951   -0.8128   -1.7309 N.pl3     1 <0>        -0.6372
      4 C3          1.5290   -0.6101   -0.5668 C.3       1 <0>         0.1050
      5 C4          1.8443   -0.8864   -2.9991 C.2       1 <0>         0.5035
      6 O1          2.6275   -1.1955   -4.0612 O.3       1 <0>        -0.6999
      7 C5          0.5302   -0.6509   -3.1773 C.2       1 <0>        -0.4626
      8 C6         -0.0809   -0.8567   -4.4983 C.2       1 <0>         0.2324
      9 C7          0.6741   -1.1470   -5.5808 C.2       1 <0>        -0.3021
     10 S1         -0.5563   -1.2848   -6.8621 S.3       1 <0>         0.1525
     11 C8         -1.9232   -0.9677   -5.9412 C.2       1 <0>         0.3196
     12 N2         -3.1988   -0.9094   -6.2646 N.2       1 <0>        -0.5778
     13 C9         -4.1807   -0.6449   -5.4182 C.2       1 <0>         0.1672
     14 C10        -3.9100   -0.4037   -4.0849 C.2       1 <0>        -0.3029
     15 C11        -2.4659   -0.4536   -3.6384 C.3       1 <0>         0.2691
     16 H1         -2.2170    0.5123   -3.1988 H         1 <0>         0.0834
     17 N3         -1.4471   -0.7659   -4.6759 N.pl3     1 <0>        -0.5145
     18 C12        -2.3510   -1.4949   -2.5550 C.ar      1 <0>        -0.0843
     19 C13        -2.2058   -2.8281   -2.8904 C.ar      1 <0>        -0.0749
     20 C14        -2.1004   -3.7832   -1.8966 C.ar      1 <0>        -0.1114
     21 C15        -2.1398   -3.4051   -0.5676 C.ar      1 <0>        -0.0732
     22 C16        -2.2840   -2.0718   -0.2323 C.ar      1 <0>        -0.1111
     23 C17        -2.3851   -1.1162   -1.2260 C.ar      1 <0>        -0.0991
     24 C18        -2.0259   -4.4465    0.5158 C.3       1 <0>        -0.0544
     25 C19        -0.8005   -4.1490    1.3823 C.3       1 <0>        -0.1425
     26 C20        -3.2845   -4.4176    1.3852 C.3       1 <0>        -0.1415
     27 C21        -4.9384   -0.1220   -3.1775 C.2       1 <0>         0.5589
     28 O2         -5.1953    1.0334   -2.8870 O.2       1 <0>        -0.5074
     29 O3         -5.6461   -1.1314   -2.6237 O.3       1 <0>        -0.3377
     30 C22        -6.6807   -0.7711   -1.7062 C.3       1 <0>         0.0777
     31 C23        -7.7952   -1.8182   -1.7574 C.3       1 <0>        -0.1472
     32 C24        -6.1064   -0.7065   -0.2895 C.3       1 <0>        -0.1669
     33 C25        -5.6040   -0.6059   -5.9119 C.3       1 <0>         0.5215
     34 F1         -6.4423   -0.1622   -4.8834 F         1 <0>        -0.1668
     35 F2         -5.6967    0.2693   -6.9993 F         1 <0>        -0.1644
     36 F3         -5.9944   -1.8887   -6.3110 F         1 <0>        -0.1651
     37 H2          3.6887   -2.6896   -0.3092 H         1 <0>         0.0430
     38 H3          3.8720   -3.0346   -2.0458 H         1 <0>         0.0592
     39 H4          5.2724   -2.4837   -1.0952 H         1 <0>         0.0500
     40 H5          4.1663   -0.2939   -0.7347 H         1 <0>         0.0484
     41 H6          4.3497   -0.6389   -2.4713 H         1 <0>         0.0777
     42 H7          1.4145    0.4577   -0.3807 H         1 <0>         0.0309
     43 H8          0.5516   -1.0522   -0.7597 H         1 <0>         0.0675
     44 H9          1.9767   -1.0851    0.3062 H         1 <0>         0.0466
     45 H10        -0.0746   -0.3108   -2.3497 H         1 <0>         0.0912
     46 H11         1.7453   -1.2648   -5.6511 H         1 <0>         0.2390
     47 H12        -2.1751   -3.1235   -3.9287 H         1 <0>         0.1068
     48 H13        -1.9878   -4.8249   -2.1586 H         1 <0>         0.1158
     49 H14        -2.3150   -1.7764    0.8061 H         1 <0>         0.1169
     50 H15        -2.4940   -0.0741   -0.9640 H         1 <0>         0.1139
     51 H16        -1.9198   -5.4321    0.0626 H         1 <0>         0.0737
     52 H17        -0.7181   -4.9023    2.1659 H         1 <0>         0.0535
     53 H18         0.0962   -4.1696    0.7629 H         1 <0>         0.0573
     54 H19        -0.9065   -3.1634    1.8355 H         1 <0>         0.0559
     55 H20        -4.1575   -4.6295    0.7679 H         1 <0>         0.0549
     56 H21        -3.2021   -5.1709    2.1688 H         1 <0>         0.0538
     57 H22        -3.3905   -3.4320    1.8384 H         1 <0>         0.0556
     58 H23        -7.0851    0.2036   -1.9791 H         1 <0>         0.0799
     59 H24        -7.3907   -2.7929   -1.4845 H         1 <0>         0.0655
     60 H25        -8.5844   -1.5433   -1.0576 H         1 <0>         0.0731
     61 H26        -8.2043   -1.8642   -2.7667 H         1 <0>         0.0627
     62 H27        -5.7020   -1.6812   -0.0166 H         1 <0>         0.0652
     63 H28        -5.3125    0.0394   -0.2530 H         1 <0>         0.0600
     64 H29        -6.8956   -0.4317    0.4103 H         1 <0>         0.0681
@<TRIPOS>BOND
     1    1    2 1
     2    1   37 1
     3    1   38 1
     4    1   39 1
     5    2    3 1
     6    2   40 1
     7    2   41 1
     8    3    4 1
     9    3    5 1
    10    4   42 1
    11    4   43 1
    12    4   44 1
    13    5    6 1
    14    5    7 2
    15    7    8 1
    16    7   45 1
    17    8   17 1
    18    8    9 2
    19    9   10 1
    20    9   46 1
    21   10   11 1
    22   11   17 1
    23   11   12 2
    24   12   13 1
    25   13   14 2
    26   13   33 1
    27   14   15 1
    28   14   27 1
    29   15   16 1
    30   15   17 1
    31   15   18 1
    32   18   23 ar
    33   18   19 ar
    34   19   20 ar
    35   19   47 1
    36   20   21 ar
    37   20   48 1
    38   21   22 ar
    39   21   24 1
    40   22   23 ar
    41   22   49 1
    42   23   50 1
    43   24   25 1
    44   24   26 1
    45   24   51 1
    46   25   52 1
    47   25   53 1
    48   25   54 1
    49   26   55 1
    50   26   56 1
    51   26   57 1
    52   27   28 2
    53   27   29 1
    54   29   30 1
    55   30   31 1
    56   30   32 1
    57   30   58 1
    58   31   59 1
    59   31   60 1
    60   31   61 1
    61   32   62 1
    62   32   63 1
    63   32   64 1
    64   33   34 1
    65   33   35 1
    66   33   36 1
@<TRIPOS>MOLECULE
ZINC57435402
   48    50     0     0     0
SMALL
USER_CHARGES

@<TRIPOS>ATOM
      1 C1         -0.2578    3.4780   -1.4385 C.3       1 <0>        -0.1376
      2 C2         -0.6112    1.9895   -1.4595 C.3       1 <0>        -0.0300
      3 C3         -0.2547    1.3616   -0.1106 C.3       1 <0>        -0.1376
      4 C4         -2.1101    1.8248   -1.7185 C.3       1 <0>        -0.1441
      5 C5          0.1660    1.3042   -2.5538 C.ar      1 <0>        -0.0665
      6 C6         -0.5074    0.6658   -3.5805 C.ar      1 <0>        -0.1349
      7 C7          0.1971    0.0365   -4.5853 C.ar      1 <0>        -0.0709
      8 C8          1.5943    0.0446   -4.5649 C.ar      1 <0>        -0.0969
      9 C9          2.2675    0.6912   -3.5249 C.ar      1 <0>        -0.0868
     10 C10         1.5496    1.3212   -2.5300 C.ar      1 <0>        -0.1297
     11 C11         2.3551   -0.6268   -5.6358 C.2       1 <0>         0.3519
     12 O1          1.7002   -1.2522   -6.6407 O.3       1 <0>        -0.5551
     13 C12         3.7156   -0.6169   -5.6127 C.2       1 <0>        -0.3449
     14 C13         4.4430   -1.2588   -6.6367 C.2       1 <0>         0.3442
     15 N1          3.9753   -1.9129   -7.6977 N.2       1 <0>        -0.6245
     16 C14         4.7665   -2.4689   -8.5831 C.2       1 <0>         0.5142
     17 O2          4.3272   -3.0663   -9.5530 O.2       1 <0>        -0.5116
     18 C15         6.2237   -2.3328   -8.3435 C.2       1 <0>        -0.1569
     19 C16         7.2709   -2.7944   -9.0731 C.2       1 <0>        -0.0433
     20 C17         7.0341   -3.6944  -10.2099 C.ar      1 <0>        -0.0338
     21 C18         6.0876   -4.7210  -10.1098 C.ar      1 <0>         0.0258
     22 C19         5.8712   -5.5606  -11.1809 C.ar      1 <0>        -0.0500
     23 C20         6.5867   -5.3918  -12.3545 C.ar      1 <0>        -0.0450
     24 C21         7.5246   -4.3806  -12.4630 C.ar      1 <0>        -0.1196
     25 C22         7.7500   -3.5268  -11.4021 C.ar      1 <0>         0.0191
     26 Cl1         8.9221   -2.2539  -11.5424 Cl        1 <0>        -0.0409
     27 N2          4.8711   -6.6468  -11.0765 N.pl3     1 <0>         0.0377
     28 O3          4.2456   -6.7962  -10.0527 O.2       1 <0>        -0.1454
     29 O4          4.6797   -7.3846  -12.0150 O.3       1 <0>        -0.1677
     30 S1          6.2145   -1.3839   -6.8276 S.3       1 <0>        -0.1797
     31 H1          0.8100    3.5954   -1.2540 H         1 <0>         0.0572
     32 H2         -0.5118    3.9254   -2.3994 H         1 <0>         0.0563
     33 H3         -0.8199    3.9738   -0.6470 H         1 <0>         0.0551
     34 H4         -0.8168    1.8573    0.6808 H         1 <0>         0.0551
     35 H5         -0.5064    0.3012   -0.1256 H         1 <0>         0.0565
     36 H6          0.8132    1.4790    0.0739 H         1 <0>         0.0572
     37 H7         -2.3640    2.2722   -2.6795 H         1 <0>         0.0590
     38 H8         -2.3618    0.7644   -1.7335 H         1 <0>         0.0592
     39 H9         -2.6722    2.3205   -0.9271 H         1 <0>         0.0548
     40 H10        -1.5873    0.6600   -3.5947 H         1 <0>         0.1242
     41 H11        -0.3298   -0.4617   -5.3857 H         1 <0>         0.1314
     42 H12         3.3472    0.7015   -3.5028 H         1 <0>         0.1289
     43 H13         2.0685    1.8251   -1.7280 H         1 <0>         0.1189
     44 H14         4.2385   -0.1176   -4.8104 H         1 <0>         0.1241
     45 H15         8.2782   -2.5001   -8.8181 H         1 <0>         0.1453
     46 H16         5.5287   -4.8547   -9.1954 H         1 <0>         0.1625
     47 H17         6.4118   -6.0537  -13.1898 H         1 <0>         0.1592
     48 H18         8.0786   -4.2560  -13.3817 H         1 <0>         0.1558
@<TRIPOS>BOND
     1    1    2 1
     2    1   31 1
     3    1   32 1
     4    1   33 1
     5    2    3 1
     6    2    4 1
     7    2    5 1
     8    3   34 1
     9    3   35 1
    10    3   36 1
    11    4   37 1
    12    4   38 1
    13    4   39 1
    14    5   10 ar
    15    5    6 ar
    16    6    7 ar
    17    6   40 1
    18    7    8 ar
    19    7   41 1
    20    8    9 ar
    21    8   11 1
    22    9   10 ar
    23    9   42 1
    24   10   43 1
    25   11   12 1
    26   11   13 2
    27   13   14 1
    28   13   44 1
    29   14   30 1
    30   14   15 2
    31   15   16 1
    32   16   17 2
    33   16   18 1
    34   18   19 2
    35   18   30 1
    36   19   20 1
    37   19   45 1
    38   20   25 ar
    39   20   21 ar
    40   21   22 ar
    41   21   46 1
    42   22   23 ar
    43   22   27 1
    44   23   24 ar
    45   23   47 1
    46   24   25 ar
    47   24   48 1
    48   25   26 1
    49   27   28 2
    50   27   29 1
@<TRIPOS>MOLECULE
ZINC01818319
   45    49     0     0     0
SMALL
USER_CHARGES
4-chloro-2-[[2-(5-chloro-1-naphthyl)benzooxazol-5-yl]iminomethyl]-6-nitro-phenol
@<TRIPOS>ATOM
      1 C1         -1.0753    5.6505   -0.7696 C.ar      1 <0>        -0.1125
      2 C2         -0.0273    5.2451    0.0017 C.ar      1 <0>        -0.0818
      3 C3         -0.1554    4.1165    0.8289 C.ar      1 <0>        -0.0480
      4 C4         -1.3797    3.4055    0.8550 C.ar      1 <0>        -0.0139
      5 C5         -1.5043    2.2767    1.6762 C.ar      1 <0>        -0.0990
      6 C6         -0.4518    1.8824    2.4466 C.ar      1 <0>        -0.0985
      7 C7          0.7537    2.5794    2.4233 C.ar      1 <0>        -0.1010
      8 C8          0.9124    3.6782    1.6333 C.ar      1 <0>        -0.0226
      9 Cl1         2.4234    4.5328    1.6200 Cl        1 <0>        -0.0592
     10 C9         -2.4548    3.8469    0.0438 C.ar      1 <0>        -0.0119
     11 C10        -2.2839    4.9658   -0.7578 C.ar      1 <0>        -0.0491
     12 C11        -3.7402    3.1243    0.0514 C.2       1 <0>         0.2794
     13 N1         -4.9181    3.6880    0.1571 N.2       1 <0>        -0.4525
     14 C12        -5.8696    2.7197    0.1269 C.ar      1 <0>         0.0391
     15 C13        -7.2627    2.7393    0.1998 C.ar      1 <0>        -0.0570
     16 C14        -7.9708    1.5432    0.1391 C.ar      1 <0>         0.1113
     17 C15        -7.2867    0.3280    0.0056 C.ar      1 <0>        -0.1283
     18 C16        -5.9124    0.3077   -0.0664 C.ar      1 <0>        -0.0774
     19 C17        -5.1945    1.4940   -0.0070 C.ar      1 <0>        -0.0112
     20 O1         -3.8756    1.7886   -0.0553 O.3       1 <0>        -0.2085
     21 N2         -9.3379    1.5539    0.2095 N.2       1 <0>        -0.4494
     22 C18       -10.0388    0.8279   -0.6157 C.2       1 <0>         0.2315
     23 C19       -11.5073    0.8394   -0.5400 C.ar      1 <0>        -0.2056
     24 C20       -12.2633    0.0621   -1.4234 C.ar      1 <0>         0.0138
     25 C21       -13.6400    0.0776   -1.3461 C.ar      1 <0>        -0.1683
     26 C22       -14.2781    0.8608   -0.3968 C.ar      1 <0>         0.0285
     27 C23       -13.5428    1.6327    0.4817 C.ar      1 <0>        -0.1843
     28 C24       -12.1582    1.6257    0.4225 C.ar      1 <0>         0.3269
     29 N3        -14.2348    2.4643    1.4919 N.pl3     1 <0>         0.0641
     30 O2        -15.4515    2.4677    1.5479 O.2       1 <0>        -0.2558
     31 O3        -13.5875    3.1453    2.2670 O.3       1 <0>        -0.1512
     32 Cl2       -14.5781   -0.8873   -2.4428 Cl        1 <0>        -0.0910
     33 H1         -0.9641    6.5193   -1.4014 H         1 <0>         0.1394
     34 H2          0.9036    5.7922   -0.0233 H         1 <0>         0.1387
     35 H3         -2.4317    1.7238    1.7011 H         1 <0>         0.1345
     36 H4         -0.5524    1.0141    3.0810 H         1 <0>         0.1373
     37 H5          1.5743    2.2445    3.0405 H         1 <0>         0.1378
     38 H6         -3.0985    5.3082   -1.3787 H         1 <0>         0.1407
     39 H7         -7.7882    3.6772    0.3031 H         1 <0>         0.1438
     40 H8         -7.8408   -0.5979   -0.0414 H         1 <0>         0.1402
     41 H9         -5.3918   -0.6329   -0.1690 H         1 <0>         0.1348
     42 H10        -9.5409    0.2180   -1.3549 H         1 <0>         0.0971
     43 H11       -11.7698   -0.5488   -2.1648 H         1 <0>         0.1288
     44 H12       -15.3568    0.8673   -0.3435 H         1 <0>         0.1359
     45 O4        -11.4351    2.3800    1.2889 O.3       1 <0>        -0.5655
@<TRIPOS>BOND
     1    1   11 ar
     2    1    2 ar
     3    1   33 1
     4    2    3 ar
     5    2   34 1
     6    3    8 ar
     7    3    4 ar
     8    4    5 ar
     9    4   10 ar
    10    5    6 ar
    11    5   35 1
    12    6    7 ar
    13    6   36 1
    14    7    8 ar
    15    7   37 1
    16    8    9 1
    17   10   11 ar
    18   10   12 1
    19   11   38 1
    20   12   20 1
    21   12   13 2
    22   13   14 1
    23   14   19 ar
    24   14   15 ar
    25   15   16 ar
    26   15   39 1
    27   16   17 ar
    28   16   21 1
    29   17   18 ar
    30   17   40 1
    31   18   19 ar
    32   18   41 1
    33   19   20 1
    34   21   22 2
    35   22   23 1
    36   22   42 1
    37   23   28 ar
    38   23   24 ar
    39   24   25 ar
    40   24   43 1
    41   25   26 ar
    42   25   32 1
    43   26   27 ar
    44   26   44 1
    45   27   28 ar
    46   27   29 1
    47   28   45 1
    48   29   30 2
    49   29   31 1
@<TRIPOS>MOLECULE
ZINC09173295
   48    52     0     0     0
SMALL
USER_CHARGES
(5S)-5-(3-chlorophenyl)-1-(4,6-dimethyl-1,3-benzothiazol-2-yl)-3-hydroxy-4-(thiophene-2-carbonyl)-5H-pyrrol-2-one
@<TRIPOS>ATOM
      1 C1         -1.6183    1.7998   -0.3867 C.3       1 <0>        -0.1090
      2 C2         -0.2740    1.1200   -0.3425 C.ar      1 <0>        -0.0796
      3 C3          0.8923    1.8714   -0.3631 C.ar      1 <0>        -0.1111
      4 C4          2.1270    1.2782   -0.3297 C.ar      1 <0>        -0.0345
      5 C5          2.2510   -0.1295   -0.2722 C.ar      1 <0>         0.1133
      6 C6          1.0421   -0.8622   -0.2527 C.ar      1 <0>        -0.1529
      7 C7         -0.1903   -0.2590   -0.2867 C.ar      1 <0>        -0.0655
      8 S1          1.6188   -2.5412   -0.1800 S.3       1 <0>         0.0007
      9 C8          3.3687   -2.1777   -0.1801 C.2       1 <0>         0.4188
     10 N1          3.3821   -0.8659   -0.2331 N.2       1 <0>        -0.5324
     11 N2          4.4374   -3.0555   -0.1364 N.am      1 <0>        -0.5089
     12 C9          4.3510   -4.5193   -0.0720 C.3       1 <0>         0.2680
     13 H1          3.7837   -4.8238    0.8199 H         1 <0>         0.0866
     14 C10         5.7752   -5.0234   -0.0454 C.2       1 <0>        -0.4916
     15 C11         6.5757   -3.9332   -0.0833 C.2       1 <0>         0.2801
     16 C12         5.7398   -2.7184   -0.1395 C.2       1 <0>         0.5131
     17 O1          6.1653   -1.5809   -0.1823 O.2       1 <0>        -0.4625
     18 O2          7.9294   -3.9537   -0.0721 O.3       1 <0>        -0.6287
     19 C13         6.2069   -6.4248    0.0151 C.2       1 <0>         0.5459
     20 O3          6.8076   -6.9183   -0.9231 O.2       1 <0>        -0.4535
     21 C14         5.9154   -7.2305    1.2038 C.2       1 <0>        -0.2112
     22 C15         6.3090   -8.5293    1.4992 C.2       1 <0>        -0.1080
     23 C16         5.8919   -9.0503    2.6971 C.2       1 <0>        -0.1713
     24 C17         5.1276   -8.2865    3.5237 C.2       1 <0>        -0.2166
     25 S2          4.9691   -6.7961    2.6525 S.3       1 <0>         0.1534
     26 C18         3.6385   -5.0506   -1.2890 C.ar      1 <0>        -0.0794
     27 C19         3.9601   -4.5677   -2.5440 C.ar      1 <0>        -0.0808
     28 C20         3.3104   -5.0580   -3.6611 C.ar      1 <0>        -0.1048
     29 C21         2.3311   -6.0239   -3.5232 C.ar      1 <0>        -0.1097
     30 C22         2.0052   -6.5036   -2.2673 C.ar      1 <0>        -0.0318
     31 C23         2.6597   -6.0162   -1.1498 C.ar      1 <0>        -0.0960
     32 Cl1         0.7751   -7.7161   -2.0932 Cl        1 <0>        -0.0784
     33 C24         3.3664    2.1352   -0.3535 C.3       1 <0>        -0.1194
     34 H2         -1.4767    2.8899   -0.4281 H         1 <0>         0.0671
     35 H3         -2.1911    1.5385    0.5153 H         1 <0>         0.0702
     36 H4         -2.1682    1.4672   -1.2795 H         1 <0>         0.0703
     37 H5          0.8254    2.9485   -0.4066 H         1 <0>         0.1287
     38 H6         -1.0890   -0.8578   -0.2704 H         1 <0>         0.1285
     39 H7          6.9170   -9.1035    0.8158 H         1 <0>         0.1413
     40 H8          6.1672  -10.0552    2.9813 H         1 <0>         0.1306
     41 H9          4.7215   -8.5446    4.4906 H         1 <0>         0.1827
     42 H10         4.7220   -3.8099   -2.6518 H         1 <0>         0.1231
     43 H11         3.5647   -4.6832   -4.6415 H         1 <0>         0.1307
     44 H12         1.8203   -6.4037   -4.3957 H         1 <0>         0.1304
     45 H13         2.4059   -6.3905   -0.1691 H         1 <0>         0.1331
     46 H14         4.2579    1.4916   -0.3209 H         1 <0>         0.0840
     47 H15         3.3657    2.8052    0.5189 H         1 <0>         0.0685
     48 H16         3.3802    2.7343   -1.2759 H         1 <0>         0.0683
@<TRIPOS>BOND
     1    1    2 1
     2    1   34 1
     3    1   35 1
     4    1   36 1
     5    2    7 ar
     6    2    3 ar
     7    3    4 ar
     8    3   37 1
     9    4    5 ar
    10    4   33 1
    11    5   10 1
    12    5    6 ar
    13    6    7 ar
    14    6    8 1
    15    7   38 1
    16    8    9 1
    17    9   10 2
    18    9   11 1
    19   11   16 am
    20   11   12 1
    21   12   13 1
    22   12   14 1
    23   12   26 1
    24   14   15 2
    25   14   19 1
    26   15   16 1
    27   15   18 1
    28   16   17 2
    29   19   20 2
    30   19   21 1
    31   21   25 1
    32   21   22 2
    33   22   23 1
    34   22   39 1
    35   23   24 2
    36   23   40 1
    37   24   25 1
    38   24   41 1
    39   26   31 ar
    40   26   27 ar
    41   27   28 ar
    42   27   42 1
    43   28   29 ar
    44   28   43 1
    45   29   30 ar
    46   29   44 1
    47   30   31 ar
    48   30   32 1
    49   31   45 1
    50   33   46 1
    51   33   47 1
    52   33   48 1
@<TRIPOS>MOLECULE
ZINC09374256
   46    49     0     0     0
SMALL
USER_CHARGES

@<TRIPOS>ATOM
      1 C1         -1.6423    1.2496    1.8695 C.3       1 <0>        -0.1058
      2 C2         -1.3044   -0.1775    1.5229 C.ar      1 <0>        -0.1271
      3 C3         -0.8698   -0.4936    0.2487 C.ar      1 <0>        -0.0905
      4 C4         -0.5597   -1.8005   -0.0725 C.ar      1 <0>        -0.1584
      5 C5         -0.6844   -2.7980    0.8864 C.ar      1 <0>         0.1865
      6 C6         -1.1208   -2.4768    2.1656 C.ar      1 <0>        -0.1559
      7 C7         -1.4242   -1.1671    2.4814 C.ar      1 <0>        -0.0912
      8 N1         -0.3719   -4.1216    0.5647 N.am      1 <0>        -0.5512
      9 C8         -0.4611   -5.2742    1.4689 C.3       1 <0>         0.2571
     10 H1          0.2010   -5.1326    2.3231 H         1 <0>         0.0812
     11 C9         -0.0218   -6.4754    0.6645 C.2       1 <0>        -0.5010
     12 C10         0.0588   -7.8609    1.1354 C.2       1 <0>         0.5034
     13 C11         1.0092   -8.2229    2.2079 C.ar      1 <0>        -0.1318
     14 C12         1.9077   -7.2726    2.6988 C.ar      1 <0>        -0.0551
     15 C13         2.7919   -7.6164    3.6992 C.ar      1 <0>        -0.1260
     16 C14         2.7908   -8.9014    4.2172 C.ar      1 <0>        -0.0201
     17 C15         1.9024   -9.8485    3.7341 C.ar      1 <0>        -0.1253
     18 C16         1.0088   -9.5151    2.7386 C.ar      1 <0>        -0.0621
     19 Cl1         3.9076   -9.3268    5.4764 Cl        1 <0>        -0.0787
     20 O1         -0.6569   -8.7132    0.6435 O.2       1 <0>        -0.4641
     21 C17         0.2832   -6.0247   -0.5754 C.2       1 <0>         0.2702
     22 O2          0.7198   -6.7897   -1.6022 O.3       1 <0>        -0.6389
     23 C18         0.0583   -4.5654   -0.6303 C.2       1 <0>         0.5100
     24 O3          0.2381   -3.8686   -1.6094 O.2       1 <0>        -0.5066
     25 C19        -1.8816   -5.4561    1.9380 C.ar      1 <0>        -0.0561
     26 C20        -2.9270   -5.3245    1.0430 C.ar      1 <0>        -0.0816
     27 C21        -4.2300   -5.4917    1.4727 C.ar      1 <0>        -0.0876
     28 C22        -4.4879   -5.7907    2.7984 C.ar      1 <0>        -0.0931
     29 C23        -3.4416   -5.9222    3.6935 C.ar      1 <0>        -0.0900
     30 C24        -2.1386   -5.7601    3.2618 C.ar      1 <0>        -0.1112
     31 Br1        -6.2705   -6.0189    3.3870 Br        1 <0>        -0.0651
     32 H2         -0.7503    1.7544    2.2406 H         1 <0>         0.0636
     33 H3         -2.0067    1.7631    0.9797 H         1 <0>         0.0612
     34 H4         -2.4143    1.2637    2.6388 H         1 <0>         0.0609
     35 H5         -0.7731    0.2824   -0.4963 H         1 <0>         0.1211
     36 H6         -0.2211   -2.0468   -1.0680 H         1 <0>         0.1515
     37 H7         -1.2188   -3.2499    2.9133 H         1 <0>         0.1245
     38 H8         -1.7597   -0.9161    3.4768 H         1 <0>         0.1203
     39 H9          1.9100   -6.2709    2.2953 H         1 <0>         0.1427
     40 H10         3.4870   -6.8827    4.0796 H         1 <0>         0.1344
     41 H11         1.9066  -10.8487    4.1417 H         1 <0>         0.1334
     42 H12         0.3135  -10.2528    2.3662 H         1 <0>         0.1395
     43 H13        -2.7256   -5.0907    0.0081 H         1 <0>         0.1243
     44 H14        -5.0467   -5.3885    0.7736 H         1 <0>         0.1287
     45 H15        -3.6425   -6.1557    4.7287 H         1 <0>         0.1296
     46 H16        -1.3213   -5.8668    3.9597 H         1 <0>         0.1303
@<TRIPOS>BOND
     1    1    2 1
     2    1   32 1
     3    1   33 1
     4    1   34 1
     5    2    7 ar
     6    2    3 ar
     7    3    4 ar
     8    3   35 1
     9    4    5 ar
    10    4   36 1
    11    5    6 ar
    12    5    8 1
    13    6    7 ar
    14    6   37 1
    15    7   38 1
    16    8   23 am
    17    8    9 1
    18    9   11 1
    19    9   25 1
    20    9   10 1
    21   11   21 2
    22   11   12 1
    23   12   20 2
    24   12   13 1
    25   13   18 ar
    26   13   14 ar
    27   14   15 ar
    28   14   39 1
    29   15   16 ar
    30   15   40 1
    31   16   17 ar
    32   16   19 1
    33   17   18 ar
    34   17   41 1
    35   18   42 1
    36   21   23 1
    37   21   22 1
    38   23   24 2
    39   25   30 ar
    40   25   26 ar
    41   26   27 ar
    42   26   43 1
    43   27   28 ar
    44   27   44 1
    45   28   29 ar
    46   28   31 1
    47   29   30 ar
    48   29   45 1
    49   30   46 1
@<TRIPOS>MOLECULE
ZINC35970267
   56    59     0     0     0
SMALL
USER_CHARGES

@<TRIPOS>ATOM
      1 C1          0.1148   -3.8660    3.7517 C.3       1 <0>        -0.1463
      2 C2          0.2521   -3.6098    2.2495 C.3       1 <0>         0.1677
      3 H1          0.9298   -4.3442    1.8141 H         1 <0>         0.0440
      4 C3         -1.1223   -3.7201    1.5820 C.3       1 <0>        -0.1304
      5 C4         -1.0019   -3.3272    0.1077 C.3       1 <0>        -0.1140
      6 C5         -0.5286   -1.8757    0.0019 C.3       1 <0>        -0.1340
      7 C6          0.8525   -1.7445    0.6516 C.3       1 <0>         0.1382
      8 N1          0.7820   -2.2577    2.0269 N.pl3     1 <0>        -0.6476
      9 C7          1.2033   -1.4807    3.0927 C.2       1 <0>         0.5091
     10 O1          1.8804   -2.0492    4.1199 O.3       1 <0>        -0.6915
     11 C8          0.9401   -0.1598    3.1087 C.2       1 <0>        -0.4496
     12 C9          1.4812    0.6844    4.1835 C.2       1 <0>         0.2228
     13 C10         2.1588    0.1466    5.2217 C.2       1 <0>        -0.2986
     14 S1          2.5646    1.5900    6.1843 S.3       1 <0>         0.1420
     15 C11         1.8531    2.7571    5.2103 C.2       1 <0>         0.3201
     16 N2          1.7760    4.0663    5.3322 N.2       1 <0>        -0.5953
     17 C12         1.1736    4.8703    4.4713 C.2       1 <0>         0.3030
     18 C13         0.5630    4.3571    3.3431 C.2       1 <0>        -0.3940
     19 C14         0.6105    2.8598    3.1350 C.3       1 <0>         0.2605
     20 H2         -0.4154    2.4974    3.0694 H         1 <0>         0.0751
     21 N3          1.3202    2.0556    4.1652 N.pl3     1 <0>        -0.5136
     22 C15         1.2765    2.5966    1.8090 C.ar      1 <0>        -0.0639
     23 C16         2.6471    2.7282    1.6861 C.ar      1 <0>        -0.0803
     24 C17         3.2585    2.4870    0.4702 C.ar      1 <0>        -0.1121
     25 C18         2.4986    2.1137   -0.6239 C.ar      1 <0>        -0.0322
     26 C19         1.1269    1.9822   -0.5003 C.ar      1 <0>        -0.1135
     27 C20         0.5172    2.2182    0.7175 C.ar      1 <0>        -0.0647
     28 Cl1         3.2657    1.8111   -2.1515 Cl        1 <0>        -0.0849
     29 C21        -0.0788    5.1952    2.4233 C.2       1 <0>         0.5343
     30 O2         -0.1053    6.3991    2.6111 O.2       1 <0>        -0.5488
     31 O3         -0.6689    4.6692    1.3272 O.3       1 <0>        -0.3576
     32 C22        -1.3050    5.5829    0.4314 C.3       1 <0>         0.0413
     33 C23         1.1528    6.3560    4.7232 C.3       1 <0>        -0.0923
     34 H3         -0.4465   -3.0513    4.2093 H         1 <0>         0.0531
     35 H4         -0.4125   -4.8062    3.9132 H         1 <0>         0.0356
     36 H5          1.1055   -3.9229    4.2026 H         1 <0>         0.0902
     37 H6         -1.4818   -4.7464    1.6568 H         1 <0>         0.0599
     38 H7         -1.8237   -3.0512    2.0806 H         1 <0>         0.0617
     39 H8         -0.2818   -3.9808   -0.3846 H         1 <0>         0.0566
     40 H9         -1.9737   -3.4285   -0.3755 H         1 <0>         0.0539
     41 H10        -0.4656   -1.5892   -1.0479 H         1 <0>         0.0604
     42 H11        -1.2356   -1.2242    0.5155 H         1 <0>         0.0625
     43 H12         1.5799   -2.3250    0.0841 H         1 <0>         0.0394
     44 H13         1.1508   -0.6962    0.6674 H         1 <0>         0.0772
     45 H14         0.3316    0.2790    2.3319 H         1 <0>         0.0906
     46 H15         2.3934   -0.8893    5.4172 H         1 <0>         0.2392
     47 H16         3.2402    3.0200    2.5402 H         1 <0>         0.1140
     48 H17         4.3293    2.5902    0.3742 H         1 <0>         0.1261
     49 H18         0.5330    1.6911   -1.3541 H         1 <0>         0.1282
     50 H19        -0.5530    2.1109    0.8153 H         1 <0>         0.1281
     51 H20        -1.7373    5.0315   -0.4037 H         1 <0>         0.0899
     52 H21        -2.0933    6.1198    0.9591 H         1 <0>         0.0514
     53 H22        -0.5698    6.2943    0.0553 H         1 <0>         0.0515
     54 H23         1.6788    6.5743    5.6526 H         1 <0>         0.0644
     55 H24         1.6442    6.8714    3.8980 H         1 <0>         0.0863
     56 H25         0.1204    6.6969    4.8013 H         1 <0>         0.0867
@<TRIPOS>BOND
     1    1    2 1
     2    1   34 1
     3    1   35 1
     4    1   36 1
     5    2    3 1
     6    2    8 1
     7    2    4 1
     8    4    5 1
     9    4   37 1
    10    4   38 1
    11    5    6 1
    12    5   39 1
    13    5   40 1
    14    6    7 1
    15    6   41 1
    16    6   42 1
    17    7    8 1
    18    7   43 1
    19    7   44 1
    20    8    9 1
    21    9   10 1
    22    9   11 2
    23   11   12 1
    24   11   45 1
    25   12   21 1
    26   12   13 2
    27   13   14 1
    28   13   46 1
    29   14   15 1
    30   15   21 1
    31   15   16 2
    32   16   17 1
    33   17   18 2
    34   17   33 1
    35   18   19 1
    36   18   29 1
    37   19   20 1
    38   19   21 1
    39   19   22 1
    40   22   27 ar
    41   22   23 ar
    42   23   24 ar
    43   23   47 1
    44   24   25 ar
    45   24   48 1
    46   25   26 ar
    47   25   28 1
    48   26   27 ar
    49   26   49 1
    50   27   50 1
    51   29   30 2
    52   29   31 1
    53   31   32 1
    54   32   51 1
    55   32   52 1
    56   32   53 1
    57   33   54 1
    58   33   55 1
    59   33   56 1
@<TRIPOS>MOLECULE
ZINC39998166
   40    42     0     0     0
SMALL
USER_CHARGES

@<TRIPOS>ATOM
      1 C1         -0.0157    1.3058    0.0092 C.2       1 <0>        -0.1692
      2 C2          0.0021   -0.0041    0.0020 C.2       1 <0>        -0.1401
      3 C3         -1.2926   -0.7753    0.0102 C.3       1 <0>        -0.0796
      4 S1         -1.4571   -1.6973   -1.5433 S.3       1 <0>        -0.0004
      5 C4         -2.9988   -2.5347   -1.3808 C.2       1 <0>        -0.0668
      6 N1         -3.8738   -2.5227   -0.3836 N.2       1 <0>        -0.2433
      7 N2         -4.9443   -3.1882   -0.4269 N.2       1 <0>        -0.3412
      8 C5         -5.2585   -3.9423   -1.4774 C.2       1 <0>         0.3644
      9 S2         -3.8336   -3.6375   -2.5177 S.3       1 <0>        -0.0614
     10 N3         -6.3513   -4.7174   -1.6995 N.2       1 <0>        -0.5989
     11 C6         -7.2988   -4.7952   -0.7895 C.2       1 <0>         0.4648
     12 O1         -7.1842   -4.1027    0.3677 O.3       1 <0>        -0.6247
     13 C7         -8.4789   -5.6323   -1.0294 C.2       1 <0>        -0.0077
     14 C8         -9.4777   -5.7143   -0.0702 C.2       1 <0>         0.0138
     15 C9        -10.6085   -6.5164   -0.3000 C.2       1 <0>         0.0097
     16 C10       -11.6777   -6.6829    0.5675 C.2       1 <0>        -0.1589
     17 C11       -12.5698   -7.5559   -0.0553 C.2       1 <0>        -0.1767
     18 C12       -12.0212   -7.8923   -1.2741 C.2       1 <0>         0.0240
     19 O2        -10.8449   -7.2538   -1.4061 O.3       1 <0>        -0.1370
     20 C13       -12.6260   -8.7968   -2.2700 C.ar      1 <0>         0.0028
     21 C14       -13.0983  -10.0534   -1.8818 C.ar      1 <0>        -0.0730
     22 C15       -13.6629  -10.8944   -2.8190 C.ar      1 <0>        -0.0343
     23 C16       -13.7621  -10.4955   -4.1421 C.ar      1 <0>        -0.0890
     24 C17       -13.2964   -9.2535   -4.5339 C.ar      1 <0>        -0.0979
     25 C18       -12.7348   -8.3988   -3.6061 C.ar      1 <0>        -0.0126
     26 Cl1       -12.1586   -6.8370   -4.0985 Cl        1 <0>        -0.0320
     27 Cl2       -14.2497  -12.4561   -2.3391 Cl        1 <0>        -0.0565
     28 C19        -8.6001   -6.3650   -2.2538 C.1       1 <0>         0.2628
     29 N4         -8.6963   -6.9462   -3.2250 N.1       1 <0>        -0.4069
     30 H1          0.9122    1.8585    0.0033 H         1 <0>         0.1035
     31 H2         -0.9582    1.8330    0.0166 H         1 <0>         0.1004
     32 H3          0.9446   -0.5313   -0.0098 H         1 <0>         0.1182
     33 H4         -1.2951   -1.4721    0.8484 H         1 <0>         0.0994
     34 H5         -2.1277   -0.0821    0.1115 H         1 <0>         0.0939
     35 H6         -9.3863   -5.1617    0.8532 H         1 <0>         0.1849
     36 H7        -11.7966   -6.2250    1.5384 H         1 <0>         0.1642
     37 H8        -13.5120   -7.9029    0.3426 H         1 <0>         0.1567
     38 H9        -13.0213  -10.3658   -0.8508 H         1 <0>         0.1493
     39 H10       -14.2049  -11.1579   -4.8712 H         1 <0>         0.1463
     40 H11       -13.3768   -8.9494   -5.5671 H         1 <0>         0.1488
@<TRIPOS>BOND
     1    1    2 2
     2    1   30 1
     3    1   31 1
     4    2    3 1
     5    2   32 1
     6    3    4 1
     7    3   33 1
     8    3   34 1
     9    4    5 1
    10    5    9 1
    11    5    6 2
    12    6    7 1
    13    7    8 2
    14    8    9 1
    15    8   10 1
    16   10   11 2
    17   11   12 1
    18   11   13 1
    19   13   14 2
    20   13   28 1
    21   14   15 1
    22   14   35 1
    23   15   19 1
    24   15   16 2
    25   16   17 1
    26   16   36 1
    27   17   18 2
    28   17   37 1
    29   18   19 1
    30   18   20 1
    31   20   25 ar
    32   20   21 ar
    33   21   22 ar
    34   21   38 1
    35   22   23 ar
    36   22   27 1
    37   23   24 ar
    38   23   39 1
    39   24   25 ar
    40   24   40 1
    41   25   26 1
    42   28   29 3
@<TRIPOS>MOLECULE
ZINC59437120
   41    43     0     0     0
SMALL
USER_CHARGES

@<TRIPOS>ATOM
      1 C1          1.8527    1.3116    0.9291 C.3       1 <0>        -0.1439
      2 C2          1.6084   -0.1921    0.7868 C.3       1 <0>         0.0630
      3 O1          2.0135   -0.6193   -0.5153 O.3       1 <0>        -0.3411
      4 C3          1.8631   -1.9283   -0.8047 C.2       1 <0>         0.5375
      5 C4          2.2568   -2.4371   -2.1196 C.2       1 <0>        -0.4200
      6 C5          2.1136   -3.7579   -2.4511 C.2       1 <0>         0.3479
      7 O2          1.5987   -4.6400   -1.5651 O.3       1 <0>        -0.5756
      8 C6          2.5163   -4.1811   -3.7434 C.2       1 <0>        -0.1149
      9 C7          2.4625   -5.4333   -4.2760 C.2       1 <0>        -0.0215
     10 C8          3.0773   -5.7027   -5.5817 C.ar      1 <0>        -0.0496
     11 C9          4.0534   -4.8378   -6.0923 C.ar      1 <0>        -0.0915
     12 C10         4.6261   -5.0980   -7.3185 C.ar      1 <0>        -0.1083
     13 C11         4.2389   -6.2105   -8.0460 C.ar      1 <0>        -0.0907
     14 C12         3.2740   -7.0711   -7.5492 C.ar      1 <0>        -0.0916
     15 C13         2.6952   -6.8288   -6.3207 C.ar      1 <0>        -0.0727
     16 Br1         2.7541   -8.5862   -8.5543 Br        1 <0>        -0.0567
     17 S1          3.1092   -2.6812   -4.5046 S.3       1 <0>        -0.1085
     18 C14         2.8205   -1.5529   -3.1527 C.2       1 <0>         0.3086
     19 N1          3.0546   -0.2554   -3.0935 N.2       1 <0>        -0.4968
     20 C15         3.5882    0.3919   -4.1708 C.ar      1 <0>         0.1530
     21 C16         4.6633   -0.1697   -4.8660 C.ar      1 <0>        -0.1677
     22 C17         5.1967    0.4894   -5.9533 C.ar      1 <0>        -0.0643
     23 C18         4.6701    1.7048   -6.3572 C.ar      1 <0>        -0.1239
     24 C19         3.6052    2.2671   -5.6734 C.ar      1 <0>        -0.0715
     25 C20         3.0582    1.6167   -4.5875 C.ar      1 <0>        -0.1227
     26 Br2         5.4090    2.6013   -7.8492 Br        1 <0>        -0.0707
     27 O3          1.4002   -2.6858    0.0269 O.2       1 <0>        -0.5288
     28 H1          2.9132    1.5220    0.7912 H         1 <0>         0.0617
     29 H2          1.2751    1.8465    0.1751 H         1 <0>         0.0618
     30 H3          1.5437    1.6375    1.9223 H         1 <0>         0.0664
     31 H4          2.1859   -0.7270    1.5407 H         1 <0>         0.0530
     32 H5          0.5478   -0.4025    0.9246 H         1 <0>         0.0531
     33 H6          1.9674   -6.2282   -3.7379 H         1 <0>         0.1535
     34 H7          4.3563   -3.9690   -5.5267 H         1 <0>         0.1478
     35 H8          5.3789   -4.4318   -7.7134 H         1 <0>         0.1344
     36 H9          4.6915   -6.4082   -9.0064 H         1 <0>         0.1313
     37 H10         1.9465   -7.5032   -5.9322 H         1 <0>         0.1375
     38 H11         5.0752   -1.1174   -4.5519 H         1 <0>         0.1332
     39 H12         6.0275    0.0570   -6.4911 H         1 <0>         0.1271
     40 H13         3.1995    3.2153   -5.9939 H         1 <0>         0.1290
     41 H14         2.2251    2.0544   -4.0576 H         1 <0>         0.1329
@<TRIPOS>BOND
     1    1    2 1
     2    1   28 1
     3    1   29 1
     4    1   30 1
     5    2    3 1
     6    2   31 1
     7    2   32 1
     8    3    4 1
     9    4    5 1
    10    4   27 2
    11    5   18 1
    12    5    6 2
    13    6    7 1
    14    6    8 1
    15    8    9 2
    16    8   17 1
    17    9   10 1
    18    9   33 1
    19   10   15 ar
    20   10   11 ar
    21   11   12 ar
    22   11   34 1
    23   12   13 ar
    24   12   35 1
    25   13   14 ar
    26   13   36 1
    27   14   15 ar
    28   14   16 1
    29   15   37 1
    30   17   18 1
    31   18   19 2
    32   19   20 1
    33   20   25 ar
    34   20   21 ar
    35   21   22 ar
    36   21   38 1
    37   22   23 ar
    38   22   39 1
    39   23   24 ar
    40   23   26 1
    41   24   25 ar
    42   24   40 1
    43   25   41 1
@<TRIPOS>MOLECULE
ZINC13312849
   51    53     0     0     0
SMALL
USER_CHARGES
2-[5-[[(S)-(4-sec-butylphenyl)-(2-thienyl)methyl]sulfamoyl]-2-thienyl]acetic acid
@<TRIPOS>ATOM
      1 C1         11.1810    2.7678    6.4393 C.3       1 <0>        -0.1544
      2 C2          9.9505    2.6716    5.5350 C.3       1 <0>        -0.1166
      3 C3          9.0066    1.5936    6.0713 C.3       1 <0>        -0.0530
      4 H1          9.5481    0.6528    6.1698 H         1 <0>         0.0774
      5 C4          8.4709    2.0195    7.4397 C.3       1 <0>        -0.1455
      6 C5          7.8556    1.4130    5.1154 C.ar      1 <0>        -0.0728
      7 C6          7.6353    0.1834    4.5232 C.ar      1 <0>        -0.1140
      8 C7          6.5799    0.0179    3.6460 C.ar      1 <0>        -0.0975
      9 C8          5.7447    1.0819    3.3609 C.ar      1 <0>        -0.0857
     10 C9          5.9681    2.3128    3.9490 C.ar      1 <0>        -0.0997
     11 C10         7.0204    2.4770    4.8303 C.ar      1 <0>        -0.1113
     12 C11         4.5943    0.9015    2.4043 C.3       1 <0>         0.2822
     13 H2          4.7734    0.0248    1.7819 H         1 <0>         0.1217
     14 C12         3.3182    0.7124    3.1832 C.2       1 <0>        -0.1634
     15 C13         2.6577   -0.4350    3.4740 C.2       1 <0>        -0.1336
     16 C14         1.4912   -0.3682    4.2125 C.2       1 <0>        -0.1517
     17 C15         1.0422    0.8427    4.6242 C.2       1 <0>        -0.1721
     18 S1          2.2882    1.9407    3.9691 S.3       1 <0>         0.0493
     19 N1          4.4759    2.0884    1.5537 N.pl3     1 <0>        -1.1092
     20 S2          4.0007    1.9316   -0.0249 S.o2      1 <0>         2.7334
     21 O1          4.7990    0.9001   -0.5888 O.2       1 <0>        -0.9505
     22 O2          3.9568    3.2440   -0.5681 O.2       1 <0>        -0.9542
     23 C16         2.3426    1.3358   -0.0131 C.2       1 <0>        -0.7987
     24 C17         1.1833    2.0380    0.0017 C.2       1 <0>         0.0251
     25 C18        -0.0163    1.3513    0.0095 C.2       1 <0>        -0.2199
     26 C19         0.0021   -0.0041    0.0020 C.2       1 <0>        -0.0132
     27 S3          1.7535   -0.3495   -0.0166 S.3       1 <0>         0.1540
     28 C20        -1.1555   -0.9689    0.0075 C.3       1 <0>        -0.1014
     29 C21        -1.5545   -1.2829   -1.4114 C.2       1 <0>         0.4684
     30 O3         -0.9598   -0.7753   -2.3326 O.co2     1 <0>        -0.6223
     31 H3         10.8691    3.0283    7.4507 H         1 <0>         0.0566
     32 H4         11.6969    1.8077    6.4541 H         1 <0>         0.0535
     33 H5         11.8535    3.5358    6.0573 H         1 <0>         0.0538
     34 H6         10.2624    2.4111    4.5236 H         1 <0>         0.0638
     35 H7          9.4346    3.6317    5.5202 H         1 <0>         0.0638
     36 H8          7.7984    1.2514    7.8217 H         1 <0>         0.0555
     37 H9          9.3034    2.1501    8.1311 H         1 <0>         0.0596
     38 H10         7.9294    2.9603    7.3412 H         1 <0>         0.0566
     39 H11         8.2881   -0.6477    4.7457 H         1 <0>         0.1234
     40 H12         6.4080   -0.9426    3.1831 H         1 <0>         0.1276
     41 H13         5.3182    3.1452    3.7229 H         1 <0>         0.1208
     42 H14         7.1928    3.4377    5.2926 H         1 <0>         0.1223
     43 H15         3.0370   -1.3871    3.1334 H         1 <0>         0.1348
     44 H16         0.9454   -1.2673    4.4576 H         1 <0>         0.1338
     45 H17         0.1615    1.0811    5.2020 H         1 <0>         0.1829
     46 H18         4.6759    2.9661    1.9151 H         1 <0>         0.4183
     47 H19         1.1967    3.1179    0.0070 H         1 <0>         0.1369
     48 H20        -0.9542    1.8866    0.0169 H         1 <0>         0.1363
     49 H21        -0.8602   -1.8879    0.5137 H         1 <0>         0.0892
     50 H22        -1.9997   -0.5207    0.5315 H         1 <0>         0.0981
     51 O4         -2.5704   -2.1265   -1.6519 O.co2     1 <0>        -0.7583
@<TRIPOS>BOND
     1    1    2 1
     2    1   31 1
     3    1   32 1
     4    1   33 1
     5    2    3 1
     6    2   34 1
     7    2   35 1
     8    3    4 1
     9    3    5 1
    10    3    6 1
    11    5   36 1
    12    5   37 1
    13    5   38 1
    14    6   11 ar
    15    6    7 ar
    16    7    8 ar
    17    7   39 1
    18    8    9 ar
    19    8   40 1
    20    9   10 ar
    21    9   12 1
    22   10   11 ar
    23   10   41 1
    24   11   42 1
    25   12   13 1
    26   12   14 1
    27   12   19 1
    28   14   18 1
    29   14   15 2
    30   15   16 1
    31   15   43 1
    32   16   17 2
    33   16   44 1
    34   17   18 1
    35   17   45 1
    36   19   20 1
    37   19   46 1
    38   20   21 2
    39   20   22 2
    40   20   23 1
    41   23   27 1
    42   23   24 2
    43   24   25 1
    44   24   47 1
    45   25   26 2
    46   25   48 1
    47   26   27 1
    48   26   28 1
    49   28   29 1
    50   28   49 1
    51   28   50 1
    52   29   30 2
    53   29   51 1
@<TRIPOS>MOLECULE
ZINC01246268
   43    46     0     0     0
SMALL
USER_CHARGES
(Z)-2-cyano-N-[5-[(2,4-dichlorophenyl)methyl]thiazol-2-yl]-3-(1H-indol-3-yl)prop-2-enamide
@<TRIPOS>ATOM
      1 C1          4.2704    5.0031   11.2880 C.ar      1 <0>        -0.1444
      2 C2          5.5193    5.1189   10.6955 C.ar      1 <0>        -0.1202
      3 C3          5.6451    5.6020    9.4112 C.ar      1 <0>        -0.1216
      4 C4          4.5122    5.9790    8.6968 C.ar      1 <0>         0.0725
      5 C5          3.2499    5.8610    9.2984 C.ar      1 <0>        -0.0623
      6 C6          3.1367    5.3715   10.5962 C.ar      1 <0>        -0.0841
      7 C7          2.2776    6.3350    8.2931 C.2       1 <0>        -0.1983
      8 C8          3.0173    6.6907    7.1812 C.2       1 <0>         0.1979
      9 N1          4.3261    6.4847    7.4257 N.pl3     1 <0>        -0.5860
     10 H1          5.1929    6.6625    6.7722 H         1 <0>         0.4396
     11 C9          0.8739    6.4050    8.4368 C.2       1 <0>         0.0575
     12 C10         0.0506    5.9422    7.4247 C.2       1 <0>        -0.0994
     13 C11        -1.3573    6.1995    7.4730 C.1       1 <0>         0.2865
     14 N2         -2.4741    6.4036    7.5113 N.1       1 <0>        -0.4563
     15 C12         0.6207    5.1877    6.3022 C.2       1 <0>         0.5100
     16 O1          1.7930    4.8617    6.3211 O.3       1 <0>        -0.5570
     17 N3         -0.1542    4.8559    5.2506 N.2       1 <0>        -0.6617
     18 C13         0.3853    4.1420    4.1884 C.2       1 <0>         0.3859
     19 N4          1.6186    3.7035    4.0258 N.2       1 <0>        -0.6004
     20 C14         1.9687    3.0343    2.9448 C.2       1 <0>         0.1009
     21 C15         1.0294    2.8033    1.9954 C.2       1 <0>        -0.3068
     22 S1         -0.3888    3.6048    2.7297 S.3       1 <0>        -0.0424
     23 C16         1.1495    2.0768    0.6806 C.3       1 <0>         0.0301
     24 C17         0.8408    0.6158    0.8839 C.ar      1 <0>        -0.0502
     25 C18         1.8679   -0.2842    1.0988 C.ar      1 <0>        -0.0912
     26 C19         1.5857   -1.6242    1.2848 C.ar      1 <0>        -0.1060
     27 C20         0.2745   -2.0657    1.2571 C.ar      1 <0>        -0.0339
     28 C21        -0.7536   -1.1657    1.0427 C.ar      1 <0>        -0.1030
     29 C22        -0.4704    0.1756    0.8560 C.ar      1 <0>        -0.0190
     30 Cl1        -1.7596    1.3049    0.5796 Cl        1 <0>        -0.0457
     31 Cl2        -0.0799   -3.7490    1.4909 Cl        1 <0>        -0.0694
     32 H2          4.1860    4.6225   12.2951 H         1 <0>         0.1168
     33 H3          6.4014    4.8272   11.2460 H         1 <0>         0.1179
     34 H4          6.6222    5.6877    8.9594 H         1 <0>         0.1141
     35 H5          2.1651    5.2804   11.0589 H         1 <0>         0.1180
     36 H6          2.6092    7.0769    6.2589 H         1 <0>         0.1684
     37 H7          0.4352    6.8272    9.3529 H         1 <0>         0.1270
     38 H8          2.9806    2.6781    2.8190 H         1 <0>         0.1315
     39 H9          0.4383    2.5049   -0.0411 H         1 <0>         0.0821
     40 H10         2.1737    2.1848    0.2942 H         1 <0>         0.0856
     41 H11         2.8914    0.0600    1.1212 H         1 <0>         0.1404
     42 H12         2.3885   -2.3269    1.4523 H         1 <0>         0.1363
     43 H13        -1.7771   -1.5098    1.0206 H         1 <0>         0.1404
@<TRIPOS>BOND
     1    1    6 ar
     2    1    2 ar
     3    1   32 1
     4    2    3 ar
     5    2   33 1
     6    3    4 ar
     7    3   34 1
     8    4    9 1
     9    4    5 ar
    10    5    6 ar
    11    5    7 1
    12    6   35 1
    13    7    8 2
    14    7   11 1
    15    8    9 1
    16    8   36 1
    17    9   10 1
    18   11   12 2
    19   11   37 1
    20   12   13 1
    21   12   15 1
    22   13   14 3
    23   15   16 1
    24   15   17 2
    25   17   18 1
    26   18   22 1
    27   18   19 2
    28   19   20 1
    29   20   21 2
    30   20   38 1
    31   21   22 1
    32   21   23 1
    33   23   24 1
    34   23   39 1
    35   23   40 1
    36   24   29 ar
    37   24   25 ar
    38   25   26 ar
    39   25   41 1
    40   26   27 ar
    41   26   42 1
    42   27   28 ar
    43   27   31 1
    44   28   29 ar
    45   28   43 1
    46   29   30 1
@<TRIPOS>MOLECULE
ZINC36050405
   59    62     0     0     0
SMALL
USER_CHARGES

@<TRIPOS>ATOM
      1 C1         -2.4871   -1.2624    0.0215 C.3       1 <0>        -0.1505
      2 C2         -0.9619   -1.3144   -0.0878 C.3       1 <0>         0.0573
      3 O1         -0.4078   -1.7134    1.1675 O.3       1 <0>        -0.3569
      4 C3          0.9396   -1.7099    1.2722 C.2       1 <0>         0.5599
      5 O2          1.6212   -1.2895    0.3534 O.2       1 <0>        -0.5005
      6 C4          1.5525   -2.1894    2.4362 C.2       1 <0>        -0.3761
      7 C5          1.6403   -3.5447    2.6903 C.2       1 <0>         0.2516
      8 N1          2.2224   -3.9834    3.7945 N.2       1 <0>        -0.5944
      9 C6          2.7533   -3.2127    4.7213 C.2       1 <0>         0.3240
     10 N2          2.7709   -1.8473    4.6599 N.pl3     1 <0>        -0.5203
     11 C7          2.1461   -1.2412    3.4540 C.3       1 <0>         0.2721
     12 H1          1.3545   -0.5718    3.7907 H         1 <0>         0.0726
     13 C8          3.1881   -0.4051    2.7567 C.ar      1 <0>        -0.0742
     14 C9          4.5030   -0.8306    2.7172 C.ar      1 <0>        -0.0744
     15 C10         5.4586   -0.0638    2.0778 C.ar      1 <0>        -0.1212
     16 C11         5.0997    1.1286    1.4771 C.ar      1 <0>        -0.0879
     17 C12         3.7851    1.5536    1.5158 C.ar      1 <0>        -0.1190
     18 C13         2.8283    0.7845    2.1518 C.ar      1 <0>        -0.0601
     19 C14         1.3940    1.2453    2.1895 C.3       1 <0>        -0.1142
     20 C15         6.1419    1.9652    0.7807 C.3       1 <0>        -0.1075
     21 C16         3.3663   -1.1800    5.7118 C.2       1 <0>         0.2367
     22 C17         3.8825   -1.9243    6.7145 C.2       1 <0>        -0.3057
     23 S1          3.5229   -3.5811    6.1666 S.3       1 <0>         0.1243
     24 C18         3.4366    0.2880    5.7396 C.2       1 <0>        -0.4608
     25 C19         4.1497    0.9099    6.6982 C.2       1 <0>         0.5024
     26 O3          4.9121    0.1857    7.5531 O.3       1 <0>        -0.7026
     27 N3          4.1037    2.2893    6.8101 N.pl3     1 <0>        -0.7526
     28 C20         4.9624    2.9746    7.7793 C.3       1 <0>         0.2191
     29 C21         4.6350    4.4455    7.7886 C.2       1 <0>        -0.0147
     30 C22         3.7239    5.0437    8.5769 C.2       1 <0>        -0.2005
     31 C23         3.7449    6.4203    8.2555 C.2       1 <0>        -0.2165
     32 C24         4.6675    6.5811    7.2900 C.2       1 <0>        -0.0461
     33 O4          5.2076    5.3825    7.0153 O.3       1 <0>        -0.1731
     34 C25         1.0688   -4.5298    1.7034 C.3       1 <0>        -0.1053
     35 H2         -2.7702   -0.6108    0.8481 H         1 <0>         0.0654
     36 H3         -2.9049   -0.8735   -0.9072 H         1 <0>         0.0736
     37 H4         -2.8729   -2.2659    0.2012 H         1 <0>         0.0640
     38 H5         -0.6770   -2.0335   -0.8558 H         1 <0>         0.0611
     39 H6         -0.5830   -0.3280   -0.3552 H         1 <0>         0.0635
     40 H7          4.7833   -1.7621    3.1864 H         1 <0>         0.1050
     41 H8          6.4858   -0.3959    2.0475 H         1 <0>         0.1137
     42 H9          3.5048    2.4853    1.0469 H         1 <0>         0.1133
     43 H10         1.2537    1.9285    3.0271 H         1 <0>         0.0693
     44 H11         1.1525    1.7578    1.2583 H         1 <0>         0.0634
     45 H12         0.7384    0.3829    2.3102 H         1 <0>         0.0585
     46 H13         6.2063    1.6681   -0.2660 H         1 <0>         0.0641
     47 H14         5.8644    3.0175    0.8433 H         1 <0>         0.0610
     48 H15         7.1087    1.8153    1.2612 H         1 <0>         0.0622
     49 H16         4.3834   -1.5992    7.6145 H         1 <0>         0.2309
     50 H17         2.9166    0.8678    4.9914 H         1 <0>         0.0838
     51 H18         3.5030    2.8019    6.2468 H         1 <0>         0.3873
     52 H19         4.7934    2.5584    8.7724 H         1 <0>         0.0887
     53 H20         6.0071    2.8366    7.5005 H         1 <0>         0.0639
     54 H21         3.0963    4.5642    9.3136 H         1 <0>         0.1482
     55 H22         3.1365    7.1943    8.6997 H         1 <0>         0.1458
     56 H23         4.9321    7.5161    6.8186 H         1 <0>         0.1995
     57 H24         1.8559   -4.8661    1.0286 H         1 <0>         0.0779
     58 H25         0.6598   -5.3859    2.2400 H         1 <0>         0.0816
     59 H26         0.2773   -4.0498    1.1279 H         1 <0>         0.0698
@<TRIPOS>BOND
     1    1    2 1
     2    1   35 1
     3    1   36 1
     4    1   37 1
     5    2    3 1
     6    2   38 1
     7    2   39 1
     8    3    4 1
     9    4    5 2
    10    4    6 1
    11    6   11 1
    12    6    7 2
    13    7    8 1
    14    7   34 1
    15    8    9 2
    16    9   23 1
    17    9   10 1
    18   10   11 1
    19   10   21 1
    20   11   12 1
    21   11   13 1
    22   13   18 ar
    23   13   14 ar
    24   14   15 ar
    25   14   40 1
    26   15   16 ar
    27   15   41 1
    28   16   17 ar
    29   16   20 1
    30   17   18 ar
    31   17   42 1
    32   18   19 1
    33   19   43 1
    34   19   44 1
    35   19   45 1
    36   20   46 1
    37   20   47 1
    38   20   48 1
    39   21   22 2
    40   21   24 1
    41   22   23 1
    42   22   49 1
    43   24   25 2
    44   24   50 1
    45   25   26 1
    46   25   27 1
    47   27   28 1
    48   27   51 1
    49   28   29 1
    50   28   52 1
    51   28   53 1
    52   29   33 1
    53   29   30 2
    54   30   31 1
    55   30   54 1
    56   31   32 2
    57   31   55 1
    58   32   33 1
    59   32   56 1
    60   34   57 1
    61   34   58 1
    62   34   59 1
@<TRIPOS>MOLECULE
ZINC36064869
   55    57     0     0     0
SMALL
USER_CHARGES

@<TRIPOS>ATOM
      1 C1         -0.3379    1.7340   -0.0024 C.3       1 <0>        -0.0917
      2 C2         -0.2376    0.2320    0.0698 C.2       1 <0>         0.3018
      3 C3         -1.3872   -0.5342    0.0502 C.2       1 <0>        -0.3934
      4 C4         -1.2343   -2.0370    0.1244 C.3       1 <0>         0.2603
      5 H1         -1.7863   -2.3878    0.9964 H         1 <0>         0.0756
      6 N1          0.1502   -2.5728    0.2131 N.pl3     1 <0>        -0.5138
      7 C5          0.5246   -3.8996    0.2893 C.2       1 <0>         0.2330
      8 C6          1.8455   -4.1750    0.3630 C.2       1 <0>        -0.3044
      9 S1          2.5646   -2.5453    0.3243 S.3       1 <0>         0.1457
     10 C7          1.1528   -1.6437    0.2186 C.2       1 <0>         0.3192
     11 N2          0.9510   -0.3441    0.1461 N.2       1 <0>        -0.5957
     12 C8         -0.4782   -4.9744    0.2908 C.2       1 <0>        -0.4735
     13 C9         -0.1002   -6.2477    0.5141 C.2       1 <0>         0.5040
     14 O1          1.1792   -6.5229    0.8668 O.3       1 <0>        -0.7028
     15 N3         -1.0187   -7.2756    0.3835 N.pl3     1 <0>        -0.7502
     16 C10        -0.5834   -8.6682    0.5156 C.3       1 <0>         0.1525
     17 C11        -0.6431   -9.0837    1.9869 C.3       1 <0>        -0.1581
     18 C12        -1.5050   -9.5708   -0.3071 C.3       1 <0>        -0.1574
     19 C13        -1.8830   -2.6303   -1.0996 C.ar      1 <0>        -0.0627
     20 C14        -1.2646   -2.5209   -2.3311 C.ar      1 <0>        -0.0813
     21 C15        -1.8591   -3.0648   -3.4540 C.ar      1 <0>        -0.1123
     22 C16        -3.0733   -3.7189   -3.3454 C.ar      1 <0>        -0.0318
     23 C17        -3.6918   -3.8282   -2.1126 C.ar      1 <0>        -0.1137
     24 C18        -3.0936   -3.2888   -0.9895 C.ar      1 <0>        -0.0634
     25 Cl1        -3.8209   -4.4019   -4.7555 Cl        1 <0>        -0.0859
     26 C19        -2.6517    0.0608   -0.0350 C.2       1 <0>         0.5360
     27 O2         -2.7516    1.2741   -0.0934 O.2       1 <0>        -0.5493
     28 O3         -3.7615   -0.7101   -0.0525 O.3       1 <0>        -0.3490
     29 C20        -5.0184   -0.0360   -0.1409 C.3       1 <0>         0.0830
     30 C21        -5.4000    0.1408   -1.6120 C.3       1 <0>        -0.1661
     31 C22        -6.0920   -0.8637    0.5685 C.3       1 <0>        -0.1476
     32 H2          0.6623    2.1665    0.0203 H         1 <0>         0.0638
     33 H3         -0.8369    2.0207   -0.9281 H         1 <0>         0.0862
     34 H4         -0.9118    2.1011    0.8485 H         1 <0>         0.0864
     35 H5          2.3376   -5.1341    0.4290 H         1 <0>         0.2324
     36 H6         -1.5180   -4.7430    0.1127 H         1 <0>         0.0904
     37 H7         -1.9504   -7.0736    0.2044 H         1 <0>         0.3827
     38 H8          0.4395   -8.7651    0.1519 H         1 <0>         0.0788
     39 H9         -0.2375  -10.0894    2.0971 H         1 <0>         0.0484
     40 H10        -0.0555   -8.3874    2.5852 H         1 <0>         0.0617
     41 H11        -1.6787   -9.0704    2.3265 H         1 <0>         0.0432
     42 H12        -1.4624   -9.2748   -1.3553 H         1 <0>         0.0555
     43 H13        -1.1811  -10.6069   -0.2088 H         1 <0>         0.0598
     44 H14        -2.5279   -9.4739    0.0566 H         1 <0>         0.0513
     45 H15        -0.3169   -2.0099   -2.4158 H         1 <0>         0.1141
     46 H16        -1.3760   -2.9789   -4.4161 H         1 <0>         0.1258
     47 H17        -4.6398   -4.3384   -2.0273 H         1 <0>         0.1274
     48 H18        -3.5739   -3.3781   -0.0263 H         1 <0>         0.1282
     49 H19        -4.9405    0.9418    0.3343 H         1 <0>         0.0770
     50 H20        -4.6351    0.7305   -2.1174 H         1 <0>         0.0586
     51 H21        -5.4779   -0.8370   -2.0872 H         1 <0>         0.0619
     52 H22        -6.3587    0.6550   -1.6794 H         1 <0>         0.0643
     53 H23        -5.8202   -0.9896    1.6165 H         1 <0>         0.0609
     54 H24        -7.0508   -0.3495    0.5011 H         1 <0>         0.0700
     55 H25        -6.1700   -1.8415    0.0933 H         1 <0>         0.0644
@<TRIPOS>BOND
     1    1    2 1
     2    1   32 1
     3    1   33 1
     4    1   34 1
     5    2   11 1
     6    2    3 2
     7    3    4 1
     8    3   26 1
     9    4    5 1
    10    4    6 1
    11    4   19 1
    12    6   10 1
    13    6    7 1
    14    7    8 2
    15    7   12 1
    16    8    9 1
    17    8   35 1
    18    9   10 1
    19   10   11 2
    20   12   13 2
    21   12   36 1
    22   13   14 1
    23   13   15 1
    24   15   16 1
    25   15   37 1
    26   16   17 1
    27   16   18 1
    28   16   38 1
    29   17   39 1
    30   17   40 1
    31   17   41 1
    32   18   42 1
    33   18   43 1
    34   18   44 1
    35   19   24 ar
    36   19   20 ar
    37   20   21 ar
    38   20   45 1
    39   21   22 ar
    40   21   46 1
    41   22   23 ar
    42   22   25 1
    43   23   24 ar
    44   23   47 1
    45   24   48 1
    46   26   27 2
    47   26   28 1
    48   28   29 1
    49   29   30 1
    50   29   31 1
    51   29   49 1
    52   30   50 1
    53   30   51 1
    54   30   52 1
    55   31   53 1
    56   31   54 1
    57   31   55 1
@<TRIPOS>MOLECULE
ZINC15269611
   50    52     0     0     0
SMALL
USER_CHARGES

@<TRIPOS>ATOM
      1 C1          1.2648    1.2266   -0.1575 C.3       1 <0>        -0.1141
      2 C2          0.6281   -0.1370   -0.0788 C.ar      1 <0>        -0.0714
      3 C3          0.0385   -0.6899   -1.2012 C.ar      1 <0>        -0.1387
      4 C4         -0.5471   -1.9405   -1.1332 C.ar      1 <0>        -0.0968
      5 C5         -0.5451   -2.6420    0.0567 C.ar      1 <0>        -0.1259
      6 C6          0.0465   -2.0900    1.1854 C.ar      1 <0>         0.1551
      7 C7          0.6390   -0.8355    1.1122 C.ar      1 <0>        -0.1290
      8 N1          0.0499   -2.7971    2.3915 N.am      1 <0>        -0.6666
      9 C8          0.1486   -2.1345    3.5610 C.2       1 <0>         0.5514
     10 O1          0.1335   -0.9176    3.5740 O.2       1 <0>        -0.5232
     11 C9          0.2740   -2.8784    4.8154 C.2       1 <0>        -0.2273
     12 C10         0.3727   -2.2155    5.9854 C.2       1 <0>         0.0037
     13 C11         0.4988   -2.9635    7.2468 C.ar      1 <0>        -0.0531
     14 C12         0.5223   -4.3617    7.2354 C.ar      1 <0>        -0.1224
     15 C13         0.6411   -5.0553    8.4213 C.ar      1 <0>        -0.0269
     16 C14         0.7365   -4.3712    9.6207 C.ar      1 <0>        -0.5968
     17 C15         0.7139   -2.9875    9.6402 C.ar      1 <0>        -0.0269
     18 C16         0.6014   -2.2796    8.4622 C.ar      1 <0>        -0.1148
     19 S1          0.8868   -5.2667   11.1307 S.o2      1 <0>         2.5984
     20 O2          0.4109   -4.4102   12.1599 O.2       1 <0>        -1.0264
     21 O3          0.3349   -6.5549   10.8956 O.2       1 <0>        -1.0269
     22 N2          2.5040   -5.4883   11.4096 N.2       1 <0>        -1.0703
     23 C17         2.9287   -6.1756   12.5499 C.ar      1 <0>         0.2868
     24 C18         1.9957   -6.6783   13.4474 C.ar      1 <0>        -0.2564
     25 C19         2.4186   -7.3575   14.5732 C.ar      1 <0>        -0.0627
     26 C20         3.7695   -7.5371   14.8081 C.ar      1 <0>        -0.2178
     27 C21         4.7018   -7.0382   13.9172 C.ar      1 <0>        -0.0706
     28 C22         4.2857   -6.3625   12.7856 C.ar      1 <0>        -0.0937
     29 Cl1         5.4563   -5.7421   11.6638 Cl        1 <0>        -0.0919
     30 C23        -1.1845   -4.0046    0.1301 C.3       1 <0>        -0.1148
     31 H1          2.3129    1.1226   -0.4384 H         1 <0>         0.0701
     32 H2          0.7462    1.8272   -0.9048 H         1 <0>         0.0659
     33 H3          1.1959    1.7163    0.8139 H         1 <0>         0.0681
     34 H4          0.0353   -0.1433   -2.1327 H         1 <0>         0.1210
     35 H5         -1.0070   -2.3692   -2.0113 H         1 <0>         0.1244
     36 H6          1.1035   -0.4052    1.9871 H         1 <0>         0.1463
     37 H7         -0.0187   -3.7647    2.3866 H         1 <0>         0.4125
     38 H8          0.2874   -3.9582    4.8039 H         1 <0>         0.1349
     39 H9          0.3593   -1.1356    5.9969 H         1 <0>         0.1392
     40 H10         0.4473   -4.8968    6.3004 H         1 <0>         0.1309
     41 H11         0.6595   -6.1351    8.4141 H         1 <0>         0.1410
     42 H12         0.7884   -2.4608   10.5801 H         1 <0>         0.1418
     43 H13         0.5884   -1.1998    8.4786 H         1 <0>         0.1332
     44 H14         0.9404   -6.5380   13.2653 H         1 <0>         0.1040
     45 H15         1.6932   -7.7485   15.2713 H         1 <0>         0.1075
     46 H16         4.0971   -8.0680   15.6898 H         1 <0>         0.1102
     47 H17         5.7561   -7.1799   14.1038 H         1 <0>         0.1145
     48 H18        -0.4435   -4.7671   -0.1096 H         1 <0>         0.0707
     49 H19        -1.5665   -4.1730    1.1370 H         1 <0>         0.0627
     50 H20        -2.0062   -4.0593   -0.5840 H         1 <0>         0.0709
@<TRIPOS>BOND
     1    1    2 1
     2    1   31 1
     3    1   32 1
     4    1   33 1
     5    2    7 ar
     6    2    3 ar
     7    3    4 ar
     8    3   34 1
     9    4    5 ar
    10    4   35 1
    11    5    6 ar
    12    5   30 1
    13    6    7 ar
    14    6    8 1
    15    7   36 1
    16    8    9 am
    17    8   37 1
    18    9   10 2
    19    9   11 1
    20   11   12 2
    21   11   38 1
    22   12   13 1
    23   12   39 1
    24   13   18 ar
    25   13   14 ar
    26   14   15 ar
    27   14   40 1
    28   15   16 ar
    29   15   41 1
    30   16   17 ar
    31   16   19 1
    32   17   18 ar
    33   17   42 1
    34   18   43 1
    35   19   20 2
    36   19   21 2
    37   19   22 1
    38   22   23 1
    39   23   28 ar
    40   23   24 ar
    41   24   25 ar
    42   24   44 1
    43   25   26 ar
    44   25   45 1
    45   26   27 ar
    46   26   46 1
    47   27   28 ar
    48   27   47 1
    49   28   29 1
    50   30   48 1
    51   30   49 1
    52   30   50 1
@<TRIPOS>MOLECULE
ZINC13351912
   42    44     0     0     0
SMALL
USER_CHARGES
2-chloro-5-[(N'E)-N'-[[5-chloro-1-[(2-chlorophenyl)methyl]-3-methyl-pyrazol-4-yl]methylene]hydrazino]benzoic acid
@<TRIPOS>ATOM
      1 C1          5.2344   -0.2113   -0.0490 C.3       1 <0>        -0.0754
      2 C2          4.8935    1.2566   -0.0379 C.2       1 <0>         0.1046
      3 C3          3.5930    1.8047   -0.0226 C.2       1 <0>        -0.1638
      4 C4          3.7274    3.1776   -0.0225 C.2       1 <0>         0.1533
      5 N1          5.0479    3.4526   -0.0289 N.pl3     1 <0>        -0.3536
      6 N2          5.7501    2.2421   -0.0416 N.2       1 <0>        -0.2589
      7 C5          5.6451    4.7904   -0.0279 C.3       1 <0>         0.1692
      8 C6          5.8359    5.2564   -1.4483 C.ar      1 <0>        -0.1160
      9 C7          4.9276    6.1293   -2.0173 C.ar      1 <0>        -0.0833
     10 C8          5.1022    6.5565   -3.3202 C.ar      1 <0>        -0.1170
     11 C9          6.1858    6.1117   -4.0548 C.ar      1 <0>        -0.0944
     12 C10         7.0948    5.2393   -3.4869 C.ar      1 <0>        -0.1167
     13 C11         6.9231    4.8151   -2.1810 C.ar      1 <0>        -0.0108
     14 Cl1         8.0684    3.7250   -1.4644 Cl        1 <0>        -0.0473
     15 Cl2         2.4356    4.3373   -0.0126 Cl        1 <0>         0.0220
     16 C12         2.3249    1.0494   -0.0145 C.2       1 <0>         0.1041
     17 N3          1.1926    1.6828   -0.0003 N.2       1 <0>        -0.2224
     18 N4         -0.0111    0.9658    0.0074 N.pl3     1 <0>        -0.5784
     19 C13        -1.2292    1.6472    0.0168 C.ar      1 <0>         0.1929
     20 C14        -1.2479    3.0385    0.0303 C.ar      1 <0>        -0.1503
     21 C15        -2.4504    3.7182    0.0348 C.ar      1 <0>        -0.0994
     22 C16        -3.6436    3.0211    0.0367 C.ar      1 <0>        -0.0431
     23 C17        -3.6359    1.6235    0.0286 C.ar      1 <0>        -0.0704
     24 C18        -2.4204    0.9375    0.0186 C.ar      1 <0>        -0.1229
     25 C19        -4.9090    0.8754    0.0301 C.2       1 <0>         0.4861
     26 O1         -5.9656    1.4747    0.0387 O.co2     1 <0>        -0.6026
     27 Cl3        -5.1516    3.8810    0.0485 Cl        1 <0>        -0.0545
     28 H1          5.3068   -0.5597   -1.0793 H         1 <0>         0.0823
     29 H2          6.1884   -0.3666    0.4549 H         1 <0>         0.0779
     30 H3          4.4546   -0.7693    0.4693 H         1 <0>         0.0819
     31 H4          4.9857    5.4823    0.4960 H         1 <0>         0.1080
     32 H5          6.6109    4.7567    0.4763 H         1 <0>         0.1152
     33 H6          4.0812    6.4774   -1.4439 H         1 <0>         0.1335
     34 H7          4.3921    7.2382   -3.7645 H         1 <0>         0.1335
     35 H8          6.3221    6.4463   -5.0726 H         1 <0>         0.1343
     36 H9          7.9414    4.8923   -4.0606 H         1 <0>         0.1354
     37 H10         2.3396   -0.0305   -0.0204 H         1 <0>         0.1200
     38 H11         0.0021   -0.0041    0.0020 H         1 <0>         0.3894
     39 H12        -0.3187    3.5890    0.0334 H         1 <0>         0.1308
     40 H13        -2.4581    4.7982    0.0411 H         1 <0>         0.1255
     41 H14        -2.4077   -0.1424    0.0127 H         1 <0>         0.1378
     42 O2         -4.8987   -0.4717    0.0218 O.co2     1 <0>        -0.7564
@<TRIPOS>BOND
     1    1    2 1
     2    1   28 1
     3    1   29 1
     4    1   30 1
     5    2    6 2
     6    2    3 1
     7    3    4 2
     8    3   16 1
     9    4    5 1
    10    4   15 1
    11    5    6 1
    12    5    7 1
    13    7    8 1
    14    7   31 1
    15    7   32 1
    16    8   13 ar
    17    8    9 ar
    18    9   10 ar
    19    9   33 1
    20   10   11 ar
    21   10   34 1
    22   11   12 ar
    23   11   35 1
    24   12   13 ar
    25   12   36 1
    26   13   14 1
    27   16   17 2
    28   16   37 1
    29   17   18 1
    30   18   19 1
    31   18   38 1
    32   19   24 ar
    33   19   20 ar
    34   20   21 ar
    35   20   39 1
    36   21   22 ar
    37   21   40 1
    38   22   23 ar
    39   22   27 1
    40   23   24 ar
    41   23   25 1
    42   24   41 1
    43   25   26 2
    44   25   42 1
@<TRIPOS>MOLECULE
ZINC17130524
   43    46     0     0     0
SMALL
USER_CHARGES
4-(3-chlorophenyl)azo-3,5-diphenyl-pyrazole-1-carbodithioic acid
@<TRIPOS>ATOM
      1 C1          6.3759    0.9633   -0.4784 C.ar      1 <0>        -0.1054
      2 C2          5.6416    0.1272   -1.3003 C.ar      1 <0>        -0.1326
      3 C3          4.2679    0.0706   -1.1813 C.ar      1 <0>        -0.0425
      4 C4          3.6204    0.8577   -0.2302 C.ar      1 <0>        -0.0156
      5 C5          4.3652    1.7020    0.5920 C.ar      1 <0>        -0.0808
      6 C6          5.7389    1.7463    0.4674 C.ar      1 <0>        -0.1298
      7 C7          2.1450    0.8018   -0.0978 C.2       1 <0>         0.1458
      8 C8          1.3210   -0.4111   -0.0843 C.2       1 <0>        -0.0749
      9 C9          0.0013    0.0135    0.0576 C.2       1 <0>         0.2440
     10 N1          0.0184    1.3773    0.1254 N.pl3     1 <0>        -0.2957
     11 N2          1.3372    1.8292    0.0281 N.2       1 <0>        -0.2316
     12 C10        -1.0673    2.1646    0.2593 C.2       1 <0>         0.4241
     13 S1         -2.6338    1.4746    0.2301 S.2       1 <0>        -0.5662
     14 S2         -0.8744    3.9039    0.4645 S.3       1 <0>        -0.6183
     15 C11        -1.1931   -0.8505    0.1221 C.ar      1 <0>        -0.0288
     16 C12        -1.3996   -1.6812    1.2263 C.ar      1 <0>        -0.0740
     17 C13        -2.5211   -2.4821    1.2822 C.ar      1 <0>        -0.1374
     18 C14        -3.4348   -2.4725    0.2430 C.ar      1 <0>        -0.0962
     19 C15        -3.2338   -1.6565   -0.8564 C.ar      1 <0>        -0.1381
     20 C16        -2.1199   -0.8460   -0.9234 C.ar      1 <0>        -0.0003
     21 N3          1.7577   -1.6944   -0.1887 N.2       1 <0>        -0.1356
     22 N4          3.0217   -1.9418   -0.2599 N.2       1 <0>        -0.2521
     23 C17         3.4608   -3.2322   -0.3649 C.ar      1 <0>         0.0850
     24 C18         2.5432   -4.2863   -0.3896 C.ar      1 <0>        -0.1106
     25 C19         2.9925   -5.5854   -0.4996 C.ar      1 <0>        -0.1060
     26 C20         4.3491   -5.8480   -0.5762 C.ar      1 <0>        -0.1034
     27 C21         5.2649   -4.8096   -0.5476 C.ar      1 <0>        -0.0351
     28 C22         4.8290   -3.5039   -0.4422 C.ar      1 <0>        -0.0664
     29 Cl1         6.9644   -5.1504   -0.6439 Cl        1 <0>        -0.0684
     30 H1          7.4507    1.0046   -0.5754 H         1 <0>         0.1206
     31 H2          6.1444   -0.4821   -2.0368 H         1 <0>         0.1230
     32 H3          3.6957   -0.5825   -1.8235 H         1 <0>         0.1210
     33 H4          3.8685    2.3173    1.3276 H         1 <0>         0.1252
     34 H5          6.3173    2.3969    1.1066 H         1 <0>         0.1234
     35 H6         -0.6850   -1.6930    2.0360 H         1 <0>         0.1134
     36 H7         -2.6842   -3.1218    2.1370 H         1 <0>         0.1181
     37 H8         -4.3093   -3.1046    0.2904 H         1 <0>         0.1155
     38 H9         -3.9511   -1.6540   -1.6638 H         1 <0>         0.1187
     39 H10        -1.9646   -0.2091   -1.7817 H         1 <0>         0.1134
     40 H11         1.4843   -4.0836   -0.3260 H         1 <0>         0.1428
     41 H12         2.2841   -6.4002   -0.5221 H         1 <0>         0.1344
     42 H13         4.6953   -6.8677   -0.6584 H         1 <0>         0.1338
     43 H14         5.5439   -2.6947   -0.4192 H         1 <0>         0.1435
@<TRIPOS>BOND
     1    1    6 ar
     2    1    2 ar
     3    1   30 1
     4    2    3 ar
     5    2   31 1
     6    3    4 ar
     7    3   32 1
     8    4    5 ar
     9    4    7 1
    10    5    6 ar
    11    5   33 1
    12    6   34 1
    13    7   11 2
    14    7    8 1
    15    8    9 2
    16    8   21 1
    17    9   10 1
    18    9   15 1
    19   10   11 1
    20   10   12 1
    21   12   13 2
    22   12   14 1
    23   15   20 ar
    24   15   16 ar
    25   16   17 ar
    26   16   35 1
    27   17   18 ar
    28   17   36 1
    29   18   19 ar
    30   18   37 1
    31   19   20 ar
    32   19   38 1
    33   20   39 1
    34   21   22 2
    35   22   23 1
    36   23   28 ar
    37   23   24 ar
    38   24   25 ar
    39   24   40 1
    40   25   26 ar
    41   25   41 1
    42   26   27 ar
    43   26   42 1
    44   27   28 ar
    45   27   29 1
    46   28   43 1
@<TRIPOS>MOLECULE
ZINC35696750
   65    68     0     0     0
SMALL
USER_CHARGES

@<TRIPOS>ATOM
      1 C1         -0.0382    0.5905   -0.3486 C.3       1 <0>        -0.1252
      2 C2          0.3125   -0.8875   -0.1657 C.3       1 <0>        -0.0908
      3 C3          0.9840   -1.0830    1.1691 C.2       1 <0>         0.3078
      4 C4          0.2162   -1.2493    2.3057 C.2       1 <0>        -0.3906
      5 C5          0.9366   -1.4425    3.6214 C.3       1 <0>         0.2605
      6 H1          0.6148   -0.6521    4.2994 H         1 <0>         0.0714
      7 N1          2.4234   -1.4380    3.5858 N.pl3     1 <0>        -0.5124
      8 C6          3.2808   -1.5959    4.6564 C.2       1 <0>         0.2305
      9 C7          4.6084   -1.5603    4.4069 C.2       1 <0>        -0.3048
     10 S1          4.6454   -1.3016    2.6444 S.3       1 <0>         0.1377
     11 C8          2.9926   -1.2580    2.3561 C.2       1 <0>         0.3202
     12 N2          2.3048   -1.0997    1.2440 N.2       1 <0>        -0.5955
     13 C9          2.7677   -1.7951    6.0194 C.2       1 <0>        -0.4641
     14 C10         3.6151   -2.1042    7.0195 C.2       1 <0>         0.5029
     15 O1          4.9516   -2.1196    6.7949 O.3       1 <0>        -0.7025
     16 N3          3.1209   -2.4064    8.2772 N.pl3     1 <0>        -0.6301
     17 C11         1.6744   -2.4728    8.4993 C.3       1 <0>         0.1045
     18 C12         4.0446   -2.6596    9.3858 C.3       1 <0>         0.1580
     19 C13         3.8766   -4.1011    9.8704 C.3       1 <0>        -0.1248
     20 C14         4.8413   -4.3656   11.0281 C.3       1 <0>        -0.1159
     21 C15         4.5356   -3.4024   12.1769 C.3       1 <0>        -0.1173
     22 C16         4.7036   -1.9610   11.6923 C.3       1 <0>        -0.1152
     23 C17         3.7389   -1.6965   10.5346 C.3       1 <0>        -0.1280
     24 C18         0.4913   -2.7585    4.2052 C.ar      1 <0>        -0.0733
     25 C19         1.0088   -3.9428    3.7147 C.ar      1 <0>        -0.0866
     26 C20         0.6003   -5.1499    4.2503 C.ar      1 <0>        -0.1220
     27 C21        -0.3254   -5.1728    5.2767 C.ar      1 <0>        -0.0908
     28 C22        -0.8422   -3.9885    5.7679 C.ar      1 <0>        -0.1237
     29 C23        -0.4305   -2.7811    5.2352 C.ar      1 <0>        -0.0750
     30 C24        -0.7715   -6.4888    5.8599 C.3       1 <0>        -0.1085
     31 C25        -1.1825   -1.2387    2.2417 C.2       1 <0>         0.5372
     32 O2         -1.7425   -1.1590    1.1622 O.2       1 <0>        -0.5459
     33 O3         -1.9115   -1.3170    3.3769 O.3       1 <0>        -0.3564
     34 C26        -3.3335   -1.3009    3.2372 C.3       1 <0>         0.0416
     35 H2          0.8729    1.1876   -0.3093 H         1 <0>         0.0478
     36 H3         -0.5239    0.7320   -1.3141 H         1 <0>         0.0563
     37 H4         -0.7133    0.9050    0.4473 H         1 <0>         0.0540
     38 H5         -0.5986   -1.4846   -0.2050 H         1 <0>         0.1184
     39 H6          0.9876   -1.2019   -0.9616 H         1 <0>         0.0688
     40 H7          5.4330   -1.6617    5.0969 H         1 <0>         0.2364
     41 H8          1.7111   -1.6935    6.2188 H         1 <0>         0.0938
     42 H9          1.3252   -3.4893    8.3180 H         1 <0>         0.0329
     43 H10         1.4514   -2.1902    9.5282 H         1 <0>         0.0478
     44 H11         1.1703   -1.7883    7.8171 H         1 <0>         0.0633
     45 H12         5.0694   -2.5073    9.0469 H         1 <0>         0.0965
     46 H13         2.8519   -4.2534   10.2093 H         1 <0>         0.0540
     47 H14         4.0945   -4.7873    9.0520 H         1 <0>         0.0610
     48 H15         4.7216   -5.3925   11.3734 H         1 <0>         0.0566
     49 H16         5.8660   -4.2133   10.6893 H         1 <0>         0.0624
     50 H17         3.5109   -3.5547   12.5158 H         1 <0>         0.0576
     51 H18         5.2228   -3.5909   13.0017 H         1 <0>         0.0566
     52 H19         4.4858   -1.2748   12.5107 H         1 <0>         0.0571
     53 H20         5.7283   -1.8087   11.3534 H         1 <0>         0.0625
     54 H21         3.8586   -0.6695   10.1893 H         1 <0>         0.0611
     55 H22         2.7142   -1.8488   10.8735 H         1 <0>         0.0568
     56 H23         1.7319   -3.9249    2.9128 H         1 <0>         0.1026
     57 H24         1.0040   -6.0752    3.8665 H         1 <0>         0.1125
     58 H25        -1.5656   -4.0063    6.5696 H         1 <0>         0.1146
     59 H26        -0.8314   -1.8557    5.6214 H         1 <0>         0.1176
     60 H27        -0.1171   -6.7594    6.6886 H         1 <0>         0.0658
     61 H28        -1.7960   -6.3977    6.2207 H         1 <0>         0.0610
     62 H29        -0.7239   -7.2612    5.0922 H         1 <0>         0.0601
     63 H30        -3.6483   -2.1482    2.6280 H         1 <0>         0.0512
     64 H31        -3.7962   -1.3695    4.2217 H         1 <0>         0.0890
     65 H32        -3.6408   -0.3728    2.7552 H         1 <0>         0.0510
@<TRIPOS>BOND
     1    1    2 1
     2    1   35 1
     3    1   36 1
     4    1   37 1
     5    2    3 1
     6    2   38 1
     7    2   39 1
     8    3   12 1
     9    3    4 2
    10    4    5 1
    11    4   31 1
    12    5    6 1
    13    5    7 1
    14    5   24 1
    15    7   11 1
    16    7    8 1
    17    8    9 2
    18    8   13 1
    19    9   10 1
    20    9   40 1
    21   10   11 1
    22   11   12 2
    23   13   14 2
    24   13   41 1
    25   14   15 1
    26   14   16 1
    27   16   17 1
    28   16   18 1
    29   17   42 1
    30   17   43 1
    31   17   44 1
    32   18   23 1
    33   18   19 1
    34   18   45 1
    35   19   20 1
    36   19   46 1
    37   19   47 1
    38   20   21 1
    39   20   48 1
    40   20   49 1
    41   21   22 1
    42   21   50 1
    43   21   51 1
    44   22   23 1
    45   22   52 1
    46   22   53 1
    47   23   54 1
    48   23   55 1
    49   24   29 ar
    50   24   25 ar
    51   25   26 ar
    52   25   56 1
    53   26   27 ar
    54   26   57 1
    55   27   28 ar
    56   27   30 1
    57   28   29 ar
    58   28   58 1
    59   29   59 1
    60   30   60 1
    61   30   61 1
    62   30   62 1
    63   31   32 2
    64   31   33 1
    65   33   34 1
    66   34   63 1
    67   34   64 1
    68   34   65 1
@<TRIPOS>MOLECULE
ZINC02423969
   55    60     0     0     0
SMALL
USER_CHARGES

@<TRIPOS>ATOM
      1 C1          0.4118   -1.7667    0.7771 C.3       1 <0>        -0.1723
      2 C2         -0.7072   -0.7437    0.9830 C.3       1 <0>         0.1144
      3 N1         -1.1453   -0.2308   -0.3175 N.pl3     1 <0>        -0.5080
      4 C3         -0.6067    0.8724   -0.9548 C.ar      1 <0>         0.1472
      5 C4          0.4129    1.7523   -0.6034 C.ar      1 <0>        -0.1515
      6 C5          0.7510    2.7886   -1.4466 C.ar      1 <0>        -0.0875
      7 C6          0.0833    2.9663   -2.6487 C.ar      1 <0>        -0.1598
      8 C7         -0.9286    2.1053   -3.0144 C.ar      1 <0>        -0.0546
      9 C8         -1.2806    1.0536   -2.1715 C.ar      1 <0>        -0.1000
     10 C9         -2.2882   -0.0198   -2.2566 C.ar      1 <0>        -0.0810
     11 C10        -2.1548   -0.7848   -1.0885 C.ar      1 <0>         0.1120
     12 C11        -2.9833   -1.8856   -0.8939 C.ar      1 <0>        -0.1233
     13 C12        -3.9231   -2.2208   -1.8441 C.ar      1 <0>        -0.1161
     14 C13        -4.0539   -1.4652   -3.0058 C.ar      1 <0>         0.1514
     15 C14        -3.2440   -0.3607   -3.2102 C.ar      1 <0>        -0.0652
     16 N2         -5.0123   -1.8162   -3.9640 N.pl3     1 <0>        -0.6325
     17 C15        -4.7591   -1.5988   -5.3103 C.ar      1 <0>         0.3735
     18 C16        -5.7746   -1.8442   -6.2660 C.ar      1 <0>         0.4187
     19 N3         -7.0161   -2.3010   -5.8503 N.2       1 <0>        -1.0678
     20 S1         -8.2074   -2.5897   -6.9637 S.o2      1 <0>         2.6682
     21 O1         -8.5525   -1.3306   -7.5249 O.2       1 <0>        -1.0021
     22 O2         -7.7653   -3.6822   -7.7576 O.2       1 <0>        -1.0030
     23 C17        -9.6233   -3.1513   -6.0780 C.2       1 <0>        -0.6812
     24 C18       -10.6448   -2.4298   -5.5553 C.2       1 <0>        -0.0422
     25 C19       -11.6623   -3.0907   -4.8931 C.2       1 <0>        -0.1811
     26 C20       -11.6085   -4.4409   -4.7859 C.2       1 <0>        -0.1670
     27 S2        -10.0887   -4.8190   -5.6428 S.3       1 <0>         0.1407
     28 N4         -5.5474   -1.6410   -7.5469 N.ar      1 <0>        -0.5678
     29 C21        -4.3463   -1.1991   -7.9489 C.ar      1 <0>         0.1179
     30 C22        -4.0800   -0.9743   -9.3090 C.ar      1 <0>        -0.1037
     31 C23        -2.8525   -0.5251   -9.6925 C.ar      1 <0>        -0.1154
     32 C24        -1.8535   -0.2847   -8.7530 C.ar      1 <0>        -0.1469
     33 C25        -2.0774   -0.4920   -7.4254 C.ar      1 <0>        -0.0733
     34 C26        -3.3310   -0.9543   -6.9938 C.ar      1 <0>         0.0437
     35 N5         -3.5772   -1.1601   -5.6915 N.ar      1 <0>        -0.4936
     36 H1          0.7377   -2.1483    1.7447 H         1 <0>         0.0695
     37 H2          0.0426   -2.5911    0.1670 H         1 <0>         0.0629
     38 H3          1.2521   -1.2895    0.2729 H         1 <0>         0.0603
     39 H4         -1.5475   -1.2209    1.4872 H         1 <0>         0.0844
     40 H5         -0.3380    0.0807    1.5931 H         1 <0>         0.0819
     41 H6          0.9392    1.6231    0.3308 H         1 <0>         0.1165
     42 H7          1.5428    3.4684   -1.1684 H         1 <0>         0.1227
     43 H8          0.3570    3.7827   -3.3007 H         1 <0>         0.1224
     44 H9         -1.4476    2.2459   -3.9510 H         1 <0>         0.1250
     45 H10        -2.8893   -2.4787    0.0037 H         1 <0>         0.1196
     46 H11        -4.5629   -3.0765   -1.6864 H         1 <0>         0.1293
     47 H12        -3.3440    0.2258   -4.1115 H         1 <0>         0.1403
     48 H13        -5.8535   -2.2115   -3.6864 H         1 <0>         0.4302
     49 H14       -10.6633   -1.3545   -5.6545 H         1 <0>         0.1432
     50 H15       -12.4876   -2.5395   -4.4671 H         1 <0>         0.1366
     51 H16       -12.3061   -5.1136   -4.3093 H         1 <0>         0.1884
     52 H17        -4.8455   -1.1573  -10.0485 H         1 <0>         0.1232
     53 H18        -2.6514   -0.3533  -10.7396 H         1 <0>         0.1162
     54 H19        -0.8879    0.0706   -9.0812 H         1 <0>         0.1157
     55 H20        -1.2933   -0.3018   -6.7074 H         1 <0>         0.1207
@<TRIPOS>BOND
     1    1    2 1
     2    1   36 1
     3    1   37 1
     4    1   38 1
     5    2    3 1
     6    2   39 1
     7    2   40 1
     8    3   11 1
     9    3    4 1
    10    4    9 ar
    11    4    5 ar
    12    5    6 ar
    13    5   41 1
    14    6    7 ar
    15    6   42 1
    16    7    8 ar
    17    7   43 1
    18    8    9 ar
    19    8   44 1
    20    9   10 1
    21   10   15 ar
    22   10   11 ar
    23   11   12 ar
    24   12   13 ar
    25   12   45 1
    26   13   14 ar
    27   13   46 1
    28   14   15 ar
    29   14   16 1
    30   15   47 1
    31   16   17 1
    32   16   48 1
    33   17   35 ar
    34   17   18 ar
    35   18   19 1
    36   18   28 ar
    37   19   20 1
    38   20   21 2
    39   20   22 2
    40   20   23 1
    41   23   27 1
    42   23   24 2
    43   24   25 1
    44   24   49 1
    45   25   26 2
    46   25   50 1
    47   26   27 1
    48   26   51 1
    49   28   29 ar
    50   29   34 ar
    51   29   30 ar
    52   30   31 ar
    53   30   52 1
    54   31   32 ar
    55   31   53 1
    56   32   33 ar
    57   32   54 1
    58   33   34 ar
    59   33   55 1
    60   34   35 ar
@<TRIPOS>MOLECULE
ZINC59105485
   65    68     0     0     0
SMALL
USER_CHARGES

@<TRIPOS>ATOM
      1 C1         -0.0187    1.5258    0.0104 C.3       1 <0>        -0.1480
      2 C2          0.0021   -0.0041    0.0020 C.3       1 <0>        -0.0861
      3 C3          0.7309   -0.5033    1.2229 C.ar      1 <0>        -0.0776
      4 C4          2.0975   -0.7091    1.1746 C.ar      1 <0>        -0.1065
      5 C5          2.7683   -1.1666    2.2919 C.ar      1 <0>        -0.1057
      6 C6          2.0691   -1.4198    3.4644 C.ar      1 <0>         0.1180
      7 C7          0.6970   -1.2122    3.5098 C.ar      1 <0>        -0.1060
      8 C8          0.0327   -0.7492    2.3909 C.ar      1 <0>        -0.1062
      9 N1          2.7468   -1.8844    4.5995 N.pl3     1 <0>        -0.4007
     10 C9          3.3831   -3.0909    4.6912 C.2       1 <0>         0.0127
     11 C10         3.9256   -3.2131    5.9143 C.2       1 <0>        -0.1541
     12 C11         3.5992   -1.9801    6.6430 C.2       1 <0>        -0.1451
     13 C12         2.8709   -1.1995    5.7636 C.2       1 <0>         0.0547
     14 C13         2.3106    0.1698    6.0499 C.3       1 <0>        -0.0861
     15 C14         3.9727   -1.6440    8.0182 C.2       1 <0>         0.0308
     16 C15         4.7037   -2.5253    8.7618 C.2       1 <0>        -0.1405
     17 C16         5.1510   -2.3849   10.0939 C.2       1 <0>         0.3536
     18 O1          4.8661   -1.2686   10.8031 O.3       1 <0>        -0.5918
     19 C17         5.8800   -3.4036   10.6550 C.2       1 <0>        -0.4261
     20 C18         6.1376   -4.5760    9.8047 C.2       1 <0>         0.3011
     21 S1          5.3148   -4.1313    8.2851 S.3       1 <0>        -0.1157
     22 N2          6.8036   -5.6792   10.0942 N.2       1 <0>        -0.4993
     23 C19         6.9335   -6.6648    9.1565 C.ar      1 <0>         0.1035
     24 C20         5.8289   -7.0600    8.3968 C.ar      1 <0>        -0.1300
     25 C21         5.9654   -8.0546    7.4516 C.ar      1 <0>        -0.1250
     26 C22         7.1973   -8.6635    7.2543 C.ar      1 <0>         0.0871
     27 C23         8.2975   -8.2747    8.0062 C.ar      1 <0>        -0.1880
     28 C24         8.1729   -7.2771    8.9499 C.ar      1 <0>        -0.0894
     29 O2          7.3265   -9.6445    6.3216 O.3       1 <0>        -0.3232
     30 C25         8.6218  -10.2288    6.1697 C.3       1 <0>         0.0303
     31 C26         6.3759   -3.3271   12.0285 C.2       1 <0>         0.5363
     32 O3          6.1447   -2.3424   12.7048 O.2       1 <0>        -0.5348
     33 O4          7.0898   -4.3484   12.5459 O.3       1 <0>        -0.3411
     34 C27         7.5427   -4.2061   13.8937 C.3       1 <0>         0.0631
     35 C28         8.3280   -5.4540   14.3023 C.3       1 <0>        -0.1433
     36 C29         3.4627   -4.1211    3.5943 C.3       1 <0>        -0.0814
     37 H1          1.0039    1.9031    0.0027 H         1 <0>         0.0565
     38 H2         -0.5459    1.8868   -0.8726 H         1 <0>         0.0586
     39 H3         -0.5289    1.8773    0.9072 H         1 <0>         0.0567
     40 H4         -1.0205   -0.3814    0.0098 H         1 <0>         0.0733
     41 H5          0.5123   -0.3556   -0.8948 H         1 <0>         0.0733
     42 H6          2.6407   -0.5123    0.2621 H         1 <0>         0.1289
     43 H7          3.8356   -1.3275    2.2534 H         1 <0>         0.1292
     44 H8          0.1504   -1.4082    4.4204 H         1 <0>         0.1296
     45 H9         -1.0339   -0.5833    2.4269 H         1 <0>         0.1291
     46 H10         4.4907   -4.0538    6.2888 H         1 <0>         0.1574
     47 H11         1.3067    0.0725    6.4630 H         1 <0>         0.0743
     48 H12         2.9511    0.6816    6.7682 H         1 <0>         0.0864
     49 H13         2.2688    0.7458    5.1254 H         1 <0>         0.0633
     50 H14         3.6700   -0.6989    8.4443 H         1 <0>         0.1427
     51 H15         4.8699   -6.5874    8.5500 H         1 <0>         0.1329
     52 H16         5.1125   -8.3607    6.8641 H         1 <0>         0.1245
     53 H17         9.2537   -8.7515    7.8489 H         1 <0>         0.1230
     54 H18         9.0304   -6.9724    9.5315 H         1 <0>         0.1254
     55 H19         9.3371   -9.4574    5.8846 H         1 <0>         0.0516
     56 H20         8.9300  -10.6793    7.1132 H         1 <0>         0.0513
     57 H21         8.5861  -10.9953    5.3956 H         1 <0>         0.0932
     58 H22         8.1870   -3.3302   13.9699 H         1 <0>         0.0514
     59 H23         6.6844   -4.0844   14.5545 H         1 <0>         0.0513
     60 H24         8.6735   -5.3454   15.3304 H         1 <0>         0.0647
     61 H25         7.6837   -6.3299   14.2260 H         1 <0>         0.0613
     62 H26         9.1863   -5.5756   13.6415 H         1 <0>         0.0612
     63 H27         4.3495   -3.9380    2.9875 H         1 <0>         0.0682
     64 H28         3.5228   -5.1165    4.0344 H         1 <0>         0.0815
     65 H29         2.5734   -4.0541    2.9676 H         1 <0>         0.0597
@<TRIPOS>BOND
     1    1    2 1
     2    1   37 1
     3    1   38 1
     4    1   39 1
     5    2    3 1
     6    2   40 1
     7    2   41 1
     8    3    8 ar
     9    3    4 ar
    10    4    5 ar
    11    4   42 1
    12    5    6 ar
    13    5   43 1
    14    6    7 ar
    15    6    9 1
    16    7    8 ar
    17    7   44 1
    18    8   45 1
    19    9   13 1
    20    9   10 1
    21   10   11 2
    22   10   36 1
    23   11   12 1
    24   11   46 1
    25   12   13 2
    26   12   15 1
    27   13   14 1
    28   14   47 1
    29   14   48 1
    30   14   49 1
    31   15   16 2
    32   15   50 1
    33   16   21 1
    34   16   17 1
    35   17   18 1
    36   17   19 2
    37   19   20 1
    38   19   31 1
    39   20   22 2
    40   20   21 1
    41   22   23 1
    42   23   28 ar
    43   23   24 ar
    44   24   25 ar
    45   24   51 1
    46   25   26 ar
    47   25   52 1
    48   26   27 ar
    49   26   29 1
    50   27   28 ar
    51   27   53 1
    52   28   54 1
    53   29   30 1
    54   30   55 1
    55   30   56 1
    56   30   57 1
    57   31   32 2
    58   31   33 1
    59   33   34 1
    60   34   35 1
    61   34   58 1
    62   34   59 1
    63   35   60 1
    64   35   61 1
    65   35   62 1
    66   36   63 1
    67   36   64 1
    68   36   65 1
@<TRIPOS>MOLECULE
ZINC10146681
   58    62     0     0     0
SMALL
USER_CHARGES
2-[4-[[3-[2-(1H-indol-3-yl)ethyl]-4-oxo-2-phenylimino-thiazolidin-5-ylidene]methyl]phenyl]sulfanylacetic acid
@<TRIPOS>ATOM
      1 C1          0.5696    1.1681   -0.5410 C.ar      1 <0>        -0.1214
      2 C2         -0.6559    1.7912   -0.3847 C.ar      1 <0>        -0.0974
      3 C3         -0.7326    3.1676   -0.3391 C.ar      1 <0>        -0.1476
      4 C4          0.4294    3.9330   -0.4621 C.ar      1 <0>         0.0991
      5 C5          1.6625    3.2973   -0.6253 C.ar      1 <0>        -0.1005
      6 C6          1.7248    1.9199   -0.6639 C.ar      1 <0>        -0.1060
      7 N1          0.3602    5.2989   -0.4225 N.2       1 <0>        -0.4664
      8 C7         -0.5675    5.9301   -1.1071 C.2       1 <0>         0.3845
      9 N2         -0.7955    7.2862   -1.1929 N.am      1 <0>        -0.5406
     10 C8         -1.7825    7.7579   -1.9356 C.2       1 <0>         0.5614
     11 O1         -1.9984    8.9528   -2.0223 O.2       1 <0>        -0.4910
     12 C9         -2.6102    6.7714   -2.6537 C.2       1 <0>        -0.2387
     13 C10        -3.6733    6.9730   -3.4747 C.2       1 <0>         0.0856
     14 C11        -4.2498    5.8471   -4.2185 C.ar      1 <0>        -0.1286
     15 C12        -3.5157    4.6652   -4.3847 C.ar      1 <0>        -0.0613
     16 C13        -4.0585    3.6175   -5.0728 C.ar      1 <0>        -0.1441
     17 C14        -5.3351    3.7272   -5.6194 C.ar      1 <0>        -0.0623
     18 C15        -6.0663    4.9024   -5.4616 C.ar      1 <0>        -0.1159
     19 C16        -5.5337    5.9528   -4.7696 C.ar      1 <0>        -0.0552
     20 S1         -6.0274    2.3752   -6.5125 S.3       1 <0>        -0.0369
     21 C17        -4.7364    1.1023   -6.4520 C.3       1 <0>        -0.1549
     22 C18        -5.2063   -0.1252   -7.1893 C.2       1 <0>         0.4810
     23 O2         -6.2999   -0.1397   -7.7029 O.co2     1 <0>        -0.6147
     24 S2         -1.8342    5.2396   -2.1589 S.3       1 <0>        -0.0184
     25 C19         0.0636    8.2144   -0.4535 C.3       1 <0>         0.1107
     26 C20         1.2528    8.6157   -1.3286 C.3       1 <0>        -0.0532
     27 C21         2.1365    9.5705   -0.5681 C.2       1 <0>        -0.1665
     28 C22         2.0984   10.9112   -0.6248 C.2       1 <0>         0.0595
     29 N3          3.0502   11.4405    0.2036 N.pl3     1 <0>        -0.5956
     30 H1          3.2135   12.3881    0.3309 H         1 <0>         0.4157
     31 C23         3.7416   10.4276    0.8295 C.ar      1 <0>         0.0944
     32 C24         3.1958    9.2118    0.3781 C.ar      1 <0>        -0.0991
     33 C25         3.7109    8.0013    0.8447 C.ar      1 <0>        -0.0653
     34 C26         4.7361    8.0036    1.7483 C.ar      1 <0>        -0.1472
     35 C27         5.2742    9.2001    2.2011 C.ar      1 <0>        -0.0985
     36 C28         4.7851   10.4063    1.7489 C.ar      1 <0>        -0.1337
     37 H2          0.6244    0.0899   -0.5715 H         1 <0>         0.1261
     38 H3         -1.5541    1.1983   -0.2941 H         1 <0>         0.1281
     39 H4         -1.6893    3.6526   -0.2130 H         1 <0>         0.1287
     40 H5          2.5648    3.8829   -0.7215 H         1 <0>         0.1283
     41 H6          2.6775    1.4271   -0.7901 H         1 <0>         0.1282
     42 H7         -4.0943    7.9620   -3.5801 H         1 <0>         0.1568
     43 H8         -2.5241    4.5809   -3.9651 H         1 <0>         0.1338
     44 H9         -3.4952    2.7046   -5.1976 H         1 <0>         0.1311
     45 H10        -7.0558    4.9829   -5.8867 H         1 <0>         0.1339
     46 H11        -6.1016    6.8632   -4.6471 H         1 <0>         0.1330
     47 H12        -3.8289    1.4826   -6.9208 H         1 <0>         0.0933
     48 H13        -4.5284    0.8449   -5.4134 H         1 <0>         0.0935
     49 H14        -0.5074    9.1037   -0.1865 H         1 <0>         0.0941
     50 H15         0.4266    7.7300    0.4529 H         1 <0>         0.0987
     51 H16         1.8238    7.7264   -1.5956 H         1 <0>         0.0773
     52 H17         0.8898    9.1001   -2.2350 H         1 <0>         0.0738
     53 H18         1.4171   11.4868   -1.2338 H         1 <0>         0.1709
     54 H19         3.2974    7.0662    0.4966 H         1 <0>         0.1247
     55 H20         5.1311    7.0667    2.1128 H         1 <0>         0.1217
     56 H21         6.0847    9.1857    2.9147 H         1 <0>         0.1234
     57 H22         5.2102   11.3321    2.1075 H         1 <0>         0.1177
     58 O3         -4.4100   -1.2023   -7.2754 O.co2     1 <0>        -0.7481
@<TRIPOS>BOND
     1    1    6 ar
     2    1    2 ar
     3    1   37 1
     4    2    3 ar
     5    2   38 1
     6    3    4 ar
     7    3   39 1
     8    4    5 ar
     9    4    7 1
    10    5    6 ar
    11    5   40 1
    12    6   41 1
    13    7    8 2
    14    8   24 1
    15    8    9 1
    16    9   10 am
    17    9   25 1
    18   10   11 2
    19   10   12 1
    20   12   13 2
    21   12   24 1
    22   13   14 1
    23   13   42 1
    24   14   19 ar
    25   14   15 ar
    26   15   16 ar
    27   15   43 1
    28   16   17 ar
    29   16   44 1
    30   17   18 ar
    31   17   20 1
    32   18   19 ar
    33   18   45 1
    34   19   46 1
    35   20   21 1
    36   21   22 1
    37   21   47 1
    38   21   48 1
    39   22   23 2
    40   22   58 1
    41   25   26 1
    42   25   49 1
    43   25   50 1
    44   26   27 1
    45   26   51 1
    46   26   52 1
    47   27   32 1
    48   27   28 2
    49   28   29 1
    50   28   53 1
    51   29   30 1
    52   29   31 1
    53   31   36 ar
    54   31   32 ar
    55   32   33 ar
    56   33   34 ar
    57   33   54 1
    58   34   35 ar
    59   34   55 1
    60   35   36 ar
    61   35   56 1
    62   36   57 1
@<TRIPOS>MOLECULE
ZINC04635180
   62    66     0     0     0
SMALL
USER_CHARGES
(4Z,5S)-4-[(4-chlorophenyl)-hydroxy-methylene]-1-[2-(1H-indol-3-yl)ethyl]-5-(4-isopropylphenyl)pyrrolidine-2,3-dione
@<TRIPOS>ATOM
      1 C1          1.8508    6.5730   -5.3311 C.3       1 <0>        -0.1426
      2 C2          0.9568    5.5571   -4.6171 C.3       1 <0>        -0.0529
      3 C3          0.5707    4.4433   -5.5923 C.3       1 <0>        -0.1447
      4 C4          1.7023    4.9657   -3.4486 C.ar      1 <0>        -0.0854
      5 C5          1.2038    5.1081   -2.1672 C.ar      1 <0>        -0.1188
      6 C6          1.8880    4.5659   -1.0952 C.ar      1 <0>        -0.1064
      7 C7          3.0700    3.8806   -1.3049 C.ar      1 <0>        -0.0725
      8 C8          3.5709    3.7423   -2.5858 C.ar      1 <0>        -0.0856
      9 C9          2.8848    4.2812   -3.6582 C.ar      1 <0>        -0.1178
     10 C10         3.8157    3.2896   -0.1363 C.3       1 <0>         0.2548
     11 H1          3.3378    3.6359    0.7920 H         1 <0>         0.0663
     12 C11         3.8278    1.7819   -0.2393 C.2       1 <0>        -0.4962
     13 C12         2.7324    0.9425   -0.2474 C.2       1 <0>         0.3802
     14 C13         1.3863    1.4860    0.0019 C.ar      1 <0>        -0.0549
     15 C14         1.1567    2.3164    1.1040 C.ar      1 <0>        -0.0889
     16 C15        -0.1065    2.8170    1.3340 C.ar      1 <0>        -0.1172
     17 C16        -1.1453    2.5093    0.4699 C.ar      1 <0>        -0.0371
     18 C17        -0.9252    1.6870   -0.6236 C.ar      1 <0>        -0.1132
     19 C18         0.3316    1.1745   -0.8627 C.ar      1 <0>        -0.0743
     20 Cl1        -2.7317    3.1503    0.7633 Cl        1 <0>        -0.0883
     21 O1          2.8946   -0.3768   -0.4837 O.2       1 <0>        -0.6100
     22 C19         5.1783    1.4073   -0.3251 C.2       1 <0>         0.3754
     23 O2          5.5991    0.2688   -0.4212 O.3       1 <0>        -0.4769
     24 C20         6.0061    2.6432   -0.2782 C.2       1 <0>         0.4756
     25 O3          7.2186    2.6708   -0.3301 O.2       1 <0>        -0.5303
     26 N1          5.2157    3.7232   -0.1591 N.am      1 <0>        -0.5990
     27 C21         5.6780    5.1110   -0.0783 C.3       1 <0>         0.1405
     28 C22         5.7762    5.6987   -1.4875 C.3       1 <0>        -0.0683
     29 C23         6.2517    7.1263   -1.4044 C.2       1 <0>        -0.1628
     30 C24         5.4808    8.2251   -1.3911 C.2       1 <0>         0.0501
     31 N2          6.2642    9.3436   -1.3038 N.pl3     1 <0>        -0.6041
     32 H2          5.7990   10.3399   -1.2733 H         1 <0>         0.4391
     33 C25         7.5925    8.9831   -1.2678 C.ar      1 <0>         0.1094
     34 C26         7.6431    7.5782   -1.3291 C.ar      1 <0>        -0.1047
     35 C27         8.8761    6.9242   -1.3104 C.ar      1 <0>        -0.0520
     36 C28        10.0296    7.6529   -1.2324 C.ar      1 <0>        -0.1459
     37 C29         9.9851    9.0388   -1.1722 C.ar      1 <0>        -0.0929
     38 C30         8.7789    9.7047   -1.1893 C.ar      1 <0>        -0.1294
     39 H3          2.1283    7.3738   -4.6299 H         1 <0>         0.0536
     40 H4          1.3065    7.0047   -6.1839 H         1 <0>         0.0525
     41 H5          2.7601    6.0707   -5.6927 H         1 <0>         0.0568
     42 H6          0.0511    6.0553   -4.2408 H         1 <0>         0.0722
     43 H7         -0.0721    3.7130   -5.0790 H         1 <0>         0.0566
     44 H8          1.4801    3.9410   -5.9540 H         1 <0>         0.0570
     45 H9          0.0264    4.8750   -6.4452 H         1 <0>         0.0527
     46 H10         0.2801    5.6432   -2.0033 H         1 <0>         0.1120
     47 H11         1.4986    4.6774   -0.0940 H         1 <0>         0.1158
     48 H12         4.4967    3.2107   -2.7491 H         1 <0>         0.1133
     49 H13         3.2744    4.1703   -4.6593 H         1 <0>         0.1127
     50 H14         1.9665    2.5610    1.7755 H         1 <0>         0.1338
     51 H15        -0.2863    3.4544    2.1871 H         1 <0>         0.1287
     52 H16        -1.7405    1.4474   -1.2902 H         1 <0>         0.1272
     53 H17         0.5017    0.5337   -1.7152 H         1 <0>         0.1306
     54 H18         6.6676    5.1405    0.4011 H         1 <0>         0.0782
     55 H19         4.9649    5.7010    0.5162 H         1 <0>         0.0738
     56 H20         6.4893    5.1086   -2.0819 H         1 <0>         0.0716
     57 H21         4.7866    5.6691   -1.9669 H         1 <0>         0.0820
     58 H22         4.4857    8.1384   -1.4393 H         1 <0>         0.1571
     59 H23         8.9132    5.9258   -1.3536 H         1 <0>         0.1132
     60 H24        10.9106    7.1799   -1.2193 H         1 <0>         0.1109
     61 H25        10.8340    9.5643   -1.1159 H         1 <0>         0.1119
     62 H26         8.7547   10.7035   -1.1453 H         1 <0>         0.1075
@<TRIPOS>BOND
     1    1    2 1
     2    1   39 1
     3    1   40 1
     4    1   41 1
     5    2    3 1
     6    2    4 1
     7    2   42 1
     8    3   43 1
     9    3   44 1
    10    3   45 1
    11    4    9 ar
    12    4    5 ar
    13    5    6 ar
    14    5   46 1
    15    6    7 ar
    16    6   47 1
    17    7    8 ar
    18    7   10 1
    19    8    9 ar
    20    8   48 1
    21    9   49 1
    22   10   12 1
    23   10   26 1
    24   10   11 1
    25   12   22 2
    26   12   13 1
    27   13   21 2
    28   13   14 1
    29   14   19 ar
    30   14   15 ar
    31   15   16 ar
    32   15   50 1
    33   16   17 ar
    34   16   51 1
    35   17   18 ar
    36   17   20 1
    37   18   19 ar
    38   18   52 1
    39   19   53 1
    40   22   24 1
    41   22   23 1
    42   24   26 am
    43   24   25 2
    44   26   27 1
    45   27   28 1
    46   27   54 1
    47   27   55 1
    48   28   29 1
    49   28   56 1
    50   28   57 1
    51   29   34 1
    52   29   30 2
    53   30   31 1
    54   30   58 1
    55   31   32 1
    56   31   33 1
    57   33   38 ar
    58   33   34 ar
    59   34   35 ar
    60   35   36 ar
    61   35   59 1
    62   36   37 ar
    63   36   60 1
    64   37   38 ar
    65   37   61 1
    66   38   62 1
@<TRIPOS>MOLECULE
ZINC36063577
   68    71     0     0     0
SMALL
USER_CHARGES

@<TRIPOS>ATOM
      1 C1          0.9369   -1.6784   -3.1991 C.3       1 <0>        -0.1471
      2 C2          1.1985   -0.1709   -3.1951 C.3       1 <0>        -0.1295
      3 C3         -0.0659    0.5673   -3.6389 C.3       1 <0>         0.1553
      4 H1         -0.3891    0.1848   -4.6071 H         1 <0>         0.0817
      5 C4          0.2314    2.0636   -3.7550 C.3       1 <0>        -0.1586
      6 N1         -1.1271    0.3555   -2.6513 N.pl3     1 <0>        -0.7472
      7 C5         -2.4548    0.3950   -3.0424 C.2       1 <0>         0.5036
      8 O1         -2.7713    0.5260   -4.3537 O.3       1 <0>        -0.7036
      9 C6         -3.4317    0.3032   -2.1197 C.2       1 <0>        -0.4694
     10 C7         -4.8363    0.4763   -2.5168 C.2       1 <0>         0.2338
     11 C8         -5.1879    0.5806   -3.8174 C.2       1 <0>        -0.3077
     12 S1         -6.9564    0.7675   -3.7073 S.3       1 <0>         0.1360
     13 C9         -7.1187    0.7004   -2.0381 C.2       1 <0>         0.3234
     14 N2         -8.1795    0.7760   -1.2610 N.2       1 <0>        -0.5970
     15 C10        -8.1541    0.7057    0.0599 C.2       1 <0>         0.3001
     16 C11        -6.9566    0.5413    0.7294 C.2       1 <0>        -0.3889
     17 C12        -5.6938    0.4463   -0.0973 C.3       1 <0>         0.2621
     18 H2         -5.0227    1.2436    0.2222 H         1 <0>         0.0719
     19 N3         -5.8439    0.5322   -1.5744 N.pl3     1 <0>        -0.5090
     20 C13        -5.0293   -0.8685    0.2202 C.ar      1 <0>        -0.0774
     21 C14        -3.8952   -0.8969    1.0105 C.ar      1 <0>        -0.0664
     22 C15        -3.2858   -2.1027    1.3017 C.ar      1 <0>        -0.1292
     23 C16        -3.8105   -3.2807    0.8031 C.ar      1 <0>        -0.0871
     24 C17        -4.9447   -3.2524    0.0138 C.ar      1 <0>        -0.1267
     25 C18        -5.5568   -2.0466   -0.2740 C.ar      1 <0>        -0.0524
     26 C19        -6.7966   -2.0163   -1.1302 C.3       1 <0>        -0.1278
     27 C20        -3.1455   -4.5954    1.1198 C.3       1 <0>        -0.1079
     28 C21        -6.9137    0.4657    2.1269 C.2       1 <0>         0.5368
     29 O2         -7.9492    0.4737    2.7697 O.2       1 <0>        -0.5506
     30 O3         -5.7241    0.3839    2.7629 O.3       1 <0>        -0.3464
     31 C22        -5.7573    0.2044    4.1802 C.3       1 <0>         0.1115
     32 C23        -4.3538    0.2589    4.7264 C.ar      1 <0>        -0.0866
     33 C24        -3.6048   -0.8989    4.8242 C.ar      1 <0>        -0.0902
     34 C25        -2.3174   -0.8489    5.3253 C.ar      1 <0>        -0.1235
     35 C26        -1.7789    0.3588    5.7281 C.ar      1 <0>        -0.1147
     36 C27        -2.5275    1.5167    5.6294 C.ar      1 <0>        -0.1247
     37 C28        -3.8134    1.4674    5.1244 C.ar      1 <0>        -0.0974
     38 C29        -9.4398    0.8062    0.8396 C.3       1 <0>        -0.0926
     39 H3          1.8378   -2.2043   -2.8829 H         1 <0>         0.0452
     40 H4          0.1223   -1.9076   -2.5120 H         1 <0>         0.0578
     41 H5          0.6643   -1.9972   -4.2051 H         1 <0>         0.0524
     42 H6          1.4712    0.1478   -2.1890 H         1 <0>         0.0576
     43 H7          2.0131    0.0583   -3.8821 H         1 <0>         0.0647
     44 H8          1.0791    2.2148   -4.4232 H         1 <0>         0.0486
     45 H9         -0.6426    2.5778   -4.1549 H         1 <0>         0.0591
     46 H10         0.4694    2.4644   -2.7697 H         1 <0>         0.0454
     47 H11        -0.8996    0.1876   -1.7234 H         1 <0>         0.3824
     48 H12        -3.1829    0.1025   -1.0881 H         1 <0>         0.0910
     49 H13        -4.5599    0.5569   -4.6957 H         1 <0>         0.2364
     50 H14        -3.4853    0.0233    1.4000 H         1 <0>         0.1156
     51 H15        -2.3995   -2.1248    1.9184 H         1 <0>         0.1124
     52 H16        -5.3544   -4.1725   -0.3760 H         1 <0>         0.1119
     53 H17        -6.5153   -1.8586   -2.1714 H         1 <0>         0.0651
     54 H18        -7.3262   -2.9643   -1.0365 H         1 <0>         0.0561
     55 H19        -7.4450   -1.2039   -0.8020 H         1 <0>         0.0764
     56 H20        -3.5709   -5.0066    2.0352 H         1 <0>         0.0631
     57 H21        -3.3090   -5.2925    0.2980 H         1 <0>         0.0609
     58 H22        -2.0754   -4.4379    1.2552 H         1 <0>         0.0616
     59 H23        -6.3543    0.9962    4.6329 H         1 <0>         0.0696
     60 H24        -6.2007   -0.7636    4.4136 H         1 <0>         0.0667
     61 H25        -4.0256   -1.8424    4.5095 H         1 <0>         0.1223
     62 H26        -1.7325   -1.7536    5.4023 H         1 <0>         0.1216
     63 H27        -0.7733    0.3977    6.1201 H         1 <0>         0.1201
     64 H28        -2.1069    2.4602    5.9444 H         1 <0>         0.1215
     65 H29        -4.3970    2.3725    5.0438 H         1 <0>         0.1217
     66 H30       -10.2742    0.9325    0.1497 H         1 <0>         0.0642
     67 H31        -9.5840   -0.1042    1.4214 H         1 <0>         0.0876
     68 H32        -9.3912    1.6630    1.5117 H         1 <0>         0.0843
@<TRIPOS>BOND
     1    1    2 1
     2    1   39 1
     3    1   40 1
     4    1   41 1
     5    2    3 1
     6    2   42 1
     7    2   43 1
     8    3    4 1
     9    3    5 1
    10    3    6 1
    11    5   44 1
    12    5   45 1
    13    5   46 1
    14    6    7 1
    15    6   47 1
    16    7    8 1
    17    7    9 2
    18    9   10 1
    19    9   48 1
    20   10   19 1
    21   10   11 2
    22   11   12 1
    23   11   49 1
    24   12   13 1
    25   13   19 1
    26   13   14 2
    27   14   15 1
    28   15   16 2
    29   15   38 1
    30   16   17 1
    31   16   28 1
    32   17   18 1
    33   17   19 1
    34   17   20 1
    35   20   25 ar
    36   20   21 ar
    37   21   22 ar
    38   21   50 1
    39   22   23 ar
    40   22   51 1
    41   23   24 ar
    42   23   27 1
    43   24   25 ar
    44   24   52 1
    45   25   26 1
    46   26   53 1
    47   26   54 1
    48   26   55 1
    49   27   56 1
    50   27   57 1
    51   27   58 1
    52   28   29 2
    53   28   30 1
    54   30   31 1
    55   31   32 1
    56   31   59 1
    57   31   60 1
    58   32   37 ar
    59   32   33 ar
    60   33   34 ar
    61   33   61 1
    62   34   35 ar
    63   34   62 1
    64   35   36 ar
    65   35   63 1
    66   36   37 ar
    67   36   64 1
    68   37   65 1
    69   38   66 1
    70   38   67 1
    71   38   68 1
@<TRIPOS>MOLECULE
ZINC36544708
   57    59     0     0     0
SMALL
USER_CHARGES

@<TRIPOS>ATOM
      1 C1          1.1254    1.4549    1.1282 C.3       1 <0>        -0.1621
      2 C2          0.6821    0.0231    0.8206 C.3       1 <0>         0.1712
      3 C3          1.3876   -0.9448    1.7727 C.3       1 <0>        -0.1643
      4 C4         -0.8322   -0.0928    1.0054 C.3       1 <0>        -0.1546
      5 N1          1.0322   -0.3100   -0.5623 N.am      1 <0>        -0.7192
      6 C5          2.3200   -0.2757   -0.9585 C.2       1 <0>         0.5161
      7 O1          3.1890    0.0310   -0.1700 O.2       1 <0>        -0.5144
      8 C6          2.6802   -0.6184   -2.3811 C.3       1 <0>         0.1667
      9 H1          2.3644   -1.6384   -2.6002 H         1 <0>         0.1352
     10 C7          1.9853    0.3349   -3.3188 C.ar      1 <0>        -0.0878
     11 C8          1.0976   -0.1478   -4.2622 C.ar      1 <0>        -0.0836
     12 C9          0.4600    0.7260   -5.1225 C.ar      1 <0>        -0.1111
     13 C10         0.7103    2.0842   -5.0394 C.ar      1 <0>        -0.0235
     14 C11         1.5988    2.5667   -4.0950 C.ar      1 <0>        -0.1054
     15 C12         2.2316    1.6924   -3.2315 C.ar      1 <0>        -0.0793
     16 Cl1        -0.0898    3.1823   -6.1199 Cl        1 <0>        -0.0763
     17 N2          4.1302   -0.5075   -2.5580 N.am      1 <0>        -0.5520
     18 C13         4.7539    0.7408   -2.4562 C.ar      1 <0>         0.1416
     19 C14         5.2388    1.1786   -1.2308 C.ar      1 <0>        -0.0776
     20 C15         5.8544    2.4111   -1.1336 C.ar      1 <0>        -0.1134
     21 C16         5.9881    3.2098   -2.2546 C.ar      1 <0>        -0.1019
     22 C17         5.5068    2.7777   -3.4766 C.ar      1 <0>        -0.1225
     23 C18         4.8947    1.5429   -3.5823 C.ar      1 <0>        -0.0230
     24 Cl2         4.2969    0.9976   -5.1182 Cl        1 <0>        -0.0484
     25 C19         4.8634   -1.6078   -2.8189 C.2       1 <0>         0.6121
     26 O2          4.3359   -2.7034   -2.8215 O.2       1 <0>        -0.5177
     27 C20         6.3059   -1.4831   -3.1012 C.ar      1 <0>        -0.2722
     28 C21         7.1459   -0.8334   -2.1933 C.ar      1 <0>         0.0306
     29 C22         8.4924   -0.7202   -2.4630 C.ar      1 <0>        -0.1847
     30 C23         9.0182   -1.2480   -3.6312 C.ar      1 <0>        -0.0080
     31 C24         8.1993   -1.8922   -4.5371 C.ar      1 <0>        -0.2406
     32 C25         6.8426   -2.0208   -4.2789 C.ar      1 <0>         0.3378
     33 O3          6.0378   -2.6587   -5.1653 O.3       1 <0>        -0.6446
     34 N3          9.3812   -0.0311   -1.5006 N.pl3     1 <0>         0.0745
     35 O4          8.9252    0.4308   -0.4806 O.2       1 <0>        -0.2162
     36 O5         10.5630    0.0697   -1.7344 O.3       1 <0>        -0.2228
     37 H2          2.2042    1.5374    0.9965 H         1 <0>         0.0802
     38 H3          0.6228    2.1444    0.4499 H         1 <0>         0.0524
     39 H4          0.8649    1.7027    2.1571 H         1 <0>         0.0601
     40 H5          1.1271   -0.6969    2.8016 H         1 <0>         0.0605
     41 H6          1.0719   -1.9648    1.5536 H         1 <0>         0.0534
     42 H7          2.4665   -0.8622    1.6410 H         1 <0>         0.0803
     43 H8         -1.3349    0.5968    0.3272 H         1 <0>         0.0611
     44 H9         -1.1480   -1.1128    0.7863 H         1 <0>         0.0614
     45 H10        -1.0927    0.1551    2.0344 H         1 <0>         0.0719
     46 H11         0.3372   -0.5554   -1.1930 H         1 <0>         0.3987
     47 H12         0.9025   -1.2081   -4.3272 H         1 <0>         0.1351
     48 H13        -0.2333    0.3487   -5.8597 H         1 <0>         0.1334
     49 H14         1.7949    3.6268   -4.0299 H         1 <0>         0.1311
     50 H15         2.9216    2.0695   -2.4912 H         1 <0>         0.1329
     51 H16         5.1343    0.5560   -0.3545 H         1 <0>         0.1539
     52 H17         6.2316    2.7518   -0.1806 H         1 <0>         0.1319
     53 H18         6.4693    4.1734   -2.1753 H         1 <0>         0.1291
     54 H19         5.6125    3.4040   -4.3501 H         1 <0>         0.1313
     55 H20         6.7404   -0.4201   -1.2817 H         1 <0>         0.1311
     56 H21        10.0747   -1.1547   -3.8344 H         1 <0>         0.1266
     57 H22         8.6165   -2.3004   -5.4458 H         1 <0>         0.1250
@<TRIPOS>BOND
     1    1    2 1
     2    1   37 1
     3    1   38 1
     4    1   39 1
     5    2    3 1
     6    2    4 1
     7    2    5 1
     8    3   40 1
     9    3   41 1
    10    3   42 1
    11    4   43 1
    12    4   44 1
    13    4   45 1
    14    5    6 am
    15    5   46 1
    16    6    7 2
    17    6    8 1
    18    8    9 1
    19    8   10 1
    20    8   17 1
    21   10   15 ar
    22   10   11 ar
    23   11   12 ar
    24   11   47 1
    25   12   13 ar
    26   12   48 1
    27   13   14 ar
    28   13   16 1
    29   14   15 ar
    30   14   49 1
    31   15   50 1
    32   17   18 1
    33   17   25 am
    34   18   23 ar
    35   18   19 ar
    36   19   20 ar
    37   19   51 1
    38   20   21 ar
    39   20   52 1
    40   21   22 ar
    41   21   53 1
    42   22   23 ar
    43   22   54 1
    44   23   24 1
    45   25   26 2
    46   25   27 1
    47   27   32 ar
    48   27   28 ar
    49   28   29 ar
    50   28   55 1
    51   29   30 ar
    52   29   34 1
    53   30   31 ar
    54   30   56 1
    55   31   32 ar
    56   31   57 1
    57   32   33 1
    58   34   35 2
    59   34   36 1
@<TRIPOS>MOLECULE
ZINC01869176
   64    70     0     0     0
SMALL
USER_CHARGES

@<TRIPOS>ATOM
      1 C1          0.6971    1.2398    0.0103 C.3       1 <0>        -0.0703
      2 C2          0.7144   -0.2545   -0.1841 C.2       1 <0>         0.1285
      3 C3          0.3326   -0.9253   -1.3361 C.2       1 <0>        -0.3272
      4 C4          0.4924   -2.2840   -1.1191 C.2       1 <0>         0.3531
      5 N1          0.9677   -2.4203    0.1575 N.pl3     1 <0>        -0.3182
      6 N2          1.0985   -1.1378    0.7058 N.2       1 <0>        -0.3009
      7 C5          1.2739   -3.6268    0.7991 C.ar      1 <0>         0.1655
      8 C6          0.5172   -4.7628    0.5429 C.ar      1 <0>        -0.1019
      9 C7          0.8218   -5.9512    1.1773 C.ar      1 <0>        -0.0986
     10 C8          1.8786   -6.0105    2.0671 C.ar      1 <0>        -0.1294
     11 C9          2.6337   -4.8810    2.3248 C.ar      1 <0>        -0.1113
     12 C10         2.3385   -3.6913    1.6886 C.ar      1 <0>        -0.1191
     13 N3          0.1910   -3.1783   -2.0854 N.2       1 <0>        -0.5429
     14 C11        -0.2631   -2.8629   -3.2731 C.2       1 <0>         0.4807
     15 C12        -0.5594   -3.9252   -4.2523 C.2       1 <0>         0.4136
     16 N4         -1.0136   -3.6138   -5.4406 N.2       1 <0>        -0.6104
     17 C13        -1.2248   -2.3245   -5.8072 C.ar      1 <0>         0.1561
     18 C14        -1.7116   -2.0318   -7.0872 C.ar      1 <0>        -0.1180
     19 C15        -1.9259   -0.7236   -7.4582 C.ar      1 <0>        -0.1164
     20 C16        -1.6624    0.3100   -6.5720 C.ar      1 <0>        -0.1493
     21 C17        -1.1824    0.0405   -5.3067 C.ar      1 <0>        -0.1254
     22 C18        -0.9597   -1.2726   -4.9124 C.ar      1 <0>         0.0680
     23 N5         -0.4782   -1.5552   -3.6477 N.pl3     1 <0>        -0.5026
     24 C19        -0.1879   -0.4823   -2.6854 C.3       1 <0>         0.2845
     25 H1         -1.1033    0.0878   -2.5263 H         1 <0>         0.0741
     26 C20         0.8309    0.4408   -3.3024 C.ar      1 <0>        -0.1256
     27 C21         0.6114    1.8049   -3.3127 C.ar      1 <0>        -0.0741
     28 C22         1.5455    2.6523   -3.8789 C.ar      1 <0>        -0.1582
     29 C23         2.7017    2.1373   -4.4360 C.ar      1 <0>        -0.0784
     30 C24         2.9261    0.7745   -4.4278 C.ar      1 <0>        -0.2103
     31 C25         1.9926   -0.0777   -3.8554 C.ar      1 <0>         0.1572
     32 O1          2.2136   -1.4185   -3.8411 O.3       1 <0>        -0.2974
     33 C26         3.4312   -1.8816   -4.4285 C.3       1 <0>         0.0319
     34 N6         -0.3570   -5.2511   -3.9156 N.2       1 <0>        -0.5986
     35 C27        -0.4035   -6.2378   -4.9039 C.ar      1 <0>         0.2146
     36 C28        -0.0151   -5.9395   -6.2038 C.ar      1 <0>        -0.1483
     37 C29        -0.0621   -6.9175   -7.1794 C.ar      1 <0>         0.0008
     38 C30        -0.4956   -8.1929   -6.8622 C.ar      1 <0>        -0.1807
     39 C31        -0.8831   -8.4929   -5.5680 C.ar      1 <0>         0.0021
     40 C32        -0.8327   -7.5204   -4.5871 C.ar      1 <0>        -0.1507
     41 Cl1        -1.4268  -10.0940   -5.1746 Cl        1 <0>        -0.0914
     42 Cl2         0.4225   -6.5455   -8.8044 Cl        1 <0>        -0.0942
     43 H2          1.6793    1.6485   -0.2271 H         1 <0>         0.0756
     44 H3         -0.0498    1.6833   -0.6483 H         1 <0>         0.0740
     45 H4          0.4492    1.4685    1.0468 H         1 <0>         0.0723
     46 H5         -0.3087   -4.7169   -0.1515 H         1 <0>         0.1411
     47 H6          0.2337   -6.8349    0.9785 H         1 <0>         0.1299
     48 H7          2.1146   -6.9409    2.5622 H         1 <0>         0.1230
     49 H8          3.4581   -4.9305    3.0208 H         1 <0>         0.1247
     50 H9          2.9318   -2.8108    1.8863 H         1 <0>         0.1262
     51 H10        -1.9183   -2.8317   -7.7828 H         1 <0>         0.1239
     52 H11        -2.3014   -0.5008   -8.4460 H         1 <0>         0.1137
     53 H12        -1.8336    1.3326   -6.8743 H         1 <0>         0.1125
     54 H13        -0.9793    0.8511   -4.6226 H         1 <0>         0.1198
     55 H14        -0.2908    2.2095   -2.8783 H         1 <0>         0.1279
     56 H15         1.3717    3.7182   -3.8866 H         1 <0>         0.1228
     57 H16         3.4298    2.8013   -4.8781 H         1 <0>         0.1207
     58 H17         3.8292    0.3728   -4.8630 H         1 <0>         0.1239
     59 H18         4.2786   -1.4395   -3.9044 H         1 <0>         0.0501
     60 H19         3.4822   -2.9676   -4.3505 H         1 <0>         0.0980
     61 H20         3.4616   -1.5909   -5.4786 H         1 <0>         0.0531
     62 H21         0.3230   -4.9443   -6.4520 H         1 <0>         0.1371
     63 H22        -0.5319   -8.9555   -7.6261 H         1 <0>         0.1228
     64 H23        -1.1310   -7.7562   -3.5762 H         1 <0>         0.1259
@<TRIPOS>BOND
     1    1    2 1
     2    1   43 1
     3    1   44 1
     4    1   45 1
     5    2    6 2
     6    2    3 1
     7    3   24 1
     8    3    4 2
     9    4    5 1
    10    4   13 1
    11    5    6 1
    12    5    7 1
    13    7   12 ar
    14    7    8 ar
    15    8    9 ar
    16    8   46 1
    17    9   10 ar
    18    9   47 1
    19   10   11 ar
    20   10   48 1
    21   11   12 ar
    22   11   49 1
    23   12   50 1
    24   13   14 2
    25   14   23 1
    26   14   15 1
    27   15   16 2
    28   15   34 1
    29   16   17 1
    30   17   22 ar
    31   17   18 ar
    32   18   19 ar
    33   18   51 1
    34   19   20 ar
    35   19   52 1
    36   20   21 ar
    37   20   53 1
    38   21   22 ar
    39   21   54 1
    40   22   23 1
    41   23   24 1
    42   24   25 1
    43   24   26 1
    44   26   31 ar
    45   26   27 ar
    46   27   28 ar
    47   27   55 1
    48   28   29 ar
    49   28   56 1
    50   29   30 ar
    51   29   57 1
    52   30   31 ar
    53   30   58 1
    54   31   32 1
    55   32   33 1
    56   33   59 1
    57   33   60 1
    58   33   61 1
    59   34   35 1
    60   35   40 ar
    61   35   36 ar
    62   36   37 ar
    63   36   62 1
    64   37   38 ar
    65   37   42 1
    66   38   39 ar
    67   38   63 1
    68   39   40 ar
    69   39   41 1
    70   40   64 1
@<TRIPOS>MOLECULE
ZINC15777582
   59    62     0     0     0
SMALL
USER_CHARGES

@<TRIPOS>ATOM
      1 C1          2.0733   -5.2285   -4.4204 C.3       1 <0>        -0.1114
      2 C2          1.3651   -5.5852   -3.1389 C.ar      1 <0>        -0.1000
      3 C3          0.6390   -6.7769   -3.0493 C.ar      1 <0>         0.0574
      4 C4         -0.0171   -7.1067   -1.8597 C.ar      1 <0>        -0.1302
      5 C5          0.0523   -6.2583   -0.7782 C.ar      1 <0>        -0.0888
      6 C6          0.7774   -5.0691   -0.8688 C.ar      1 <0>        -0.0202
      7 C7          1.4373   -4.7412   -2.0547 C.ar      1 <0>        -0.0938
      8 C8          0.8509   -4.1566    0.2957 C.ar      1 <0>        -0.0745
      9 C9          0.1996   -4.4895    1.4849 C.ar      1 <0>        -0.0811
     10 C10         0.2672   -3.6428    2.5673 C.ar      1 <0>        -0.1042
     11 C11         0.9885   -2.4483    2.4759 C.ar      1 <0>         0.1274
     12 C12         1.6402   -2.1160    1.2846 C.ar      1 <0>        -0.1460
     13 C13         1.5759   -2.9674    0.2051 C.ar      1 <0>        -0.0770
     14 N1          1.0560   -1.6061    3.5503 N.2       1 <0>        -0.5278
     15 C14         0.0292   -0.8653    3.8637 C.2       1 <0>         0.2802
     16 C15        -1.1845   -0.9028    3.0353 C.ar      1 <0>        -0.2825
     17 C16        -2.4498   -0.7745    3.6297 C.ar      1 <0>         0.3302
     18 C17        -3.5866   -0.8109    2.8385 C.ar      1 <0>        -0.2445
     19 C18        -3.4743   -0.9733    1.4708 C.ar      1 <0>        -0.0075
     20 C19        -2.2283   -1.1004    0.8795 C.ar      1 <0>        -0.1787
     21 C20        -1.0858   -1.0608    1.6492 C.ar      1 <0>         0.0206
     22 N2         -2.1231   -1.2737   -0.5867 N.pl3     1 <0>         0.0718
     23 O1         -3.1233   -1.3041   -1.2651 O.2       1 <0>        -0.2252
     24 O2         -1.0369   -1.3849   -1.1058 O.3       1 <0>        -0.2056
     25 O3         -2.5589   -0.6160    4.9731 O.3       1 <0>        -0.6642
     26 C21        -0.4364   -4.0022    3.8506 C.3       1 <0>        -0.1108
     27 N3          0.5704   -7.6185   -4.1242 N.2       1 <0>        -0.4442
     28 C22         1.6089   -8.3322   -4.4610 C.2       1 <0>         0.2065
     29 C23         2.7974   -8.3543   -3.5961 C.ar      1 <0>        -0.1432
     30 C24         4.0777   -8.4793   -4.1581 C.ar      1 <0>         0.1904
     31 C25         5.1904   -8.4990   -3.3329 C.ar      1 <0>        -0.1531
     32 C26         5.0395   -8.3964   -1.9631 C.ar      1 <0>        -0.0265
     33 C27         3.7785   -8.2729   -1.4037 C.ar      1 <0>        -0.0582
     34 C28         2.6601   -8.2451   -2.2087 C.ar      1 <0>        -0.0227
     35 N4          3.6317   -8.1639    0.0651 N.pl3     1 <0>         0.0337
     36 O4          4.6112   -8.1828    0.7735 O.2       1 <0>        -0.1610
     37 O5          2.5323   -8.0560    0.5564 O.3       1 <0>        -0.1399
     38 O6          4.2247   -8.5809   -5.5034 O.3       1 <0>        -0.4848
     39 H1          3.0845   -5.6350   -4.4019 H         1 <0>         0.0575
     40 H2          1.5282   -5.6484   -5.2657 H         1 <0>         0.0689
     41 H3          2.1194   -4.1441   -4.5203 H         1 <0>         0.0735
     42 H4         -0.5785   -8.0266   -1.7894 H         1 <0>         0.1284
     43 H5         -0.4547   -6.5127    0.1408 H         1 <0>         0.1323
     44 H6          2.0014   -3.8227   -2.1223 H         1 <0>         0.1296
     45 H7         -0.3578   -5.4119    1.5552 H         1 <0>         0.1220
     46 H8          2.1977   -1.1938    1.2128 H         1 <0>         0.1233
     47 H9          2.0830   -2.7130   -0.7139 H         1 <0>         0.1215
     48 H10         0.0707   -0.2243    4.7320 H         1 <0>         0.1635
     49 H11        -4.5620   -0.7126    3.2915 H         1 <0>         0.1237
     50 H12        -4.3639   -1.0017    0.8591 H         1 <0>         0.1254
     51 H13        -0.1160   -1.1557    1.1834 H         1 <0>         0.1432
     52 H14         0.2387   -4.5743    4.4871 H         1 <0>         0.0655
     53 H15        -0.7378   -3.0910    4.3672 H         1 <0>         0.0739
     54 H16        -1.3188   -4.6013    3.6257 H         1 <0>         0.0610
     55 H17         1.5957   -8.9070   -5.3752 H         1 <0>         0.1801
     56 H18         6.1774   -8.5950   -3.7608 H         1 <0>         0.1567
     57 H19         5.9104   -8.4130   -1.3246 H         1 <0>         0.1593
     58 H20         1.6791   -8.1438   -1.7685 H         1 <0>         0.1735
     59 H21         4.4032   -7.7389   -5.9443 H         1 <0>         0.4065
@<TRIPOS>BOND
     1    1    2 1
     2    1   39 1
     3    1   40 1
     4    1   41 1
     5    2    7 ar
     6    2    3 ar
     7    3    4 ar
     8    3   27 1
     9    4    5 ar
    10    4   42 1
    11    5    6 ar
    12    5   43 1
    13    6    7 ar
    14    6    8 1
    15    7   44 1
    16    8   13 ar
    17    8    9 ar
    18    9   10 ar
    19    9   45 1
    20   10   11 ar
    21   10   26 1
    22   11   12 ar
    23   11   14 1
    24   12   13 ar
    25   12   46 1
    26   13   47 1
    27   14   15 2
    28   15   16 1
    29   15   48 1
    30   16   21 ar
    31   16   17 ar
    32   17   18 ar
    33   17   25 1
    34   18   19 ar
    35   18   49 1
    36   19   20 ar
    37   19   50 1
    38   20   21 ar
    39   20   22 1
    40   21   51 1
    41   22   23 2
    42   22   24 1
    43   26   52 1
    44   26   53 1
    45   26   54 1
    46   27   28 2
    47   28   29 1
    48   28   55 1
    49   29   34 ar
    50   29   30 ar
    51   30   31 ar
    52   30   38 1
    53   31   32 ar
    54   31   56 1
    55   32   33 ar
    56   32   57 1
    57   33   34 ar
    58   33   35 1
    59   34   58 1
    60   35   36 2
    61   35   37 1
    62   38   59 1
@<TRIPOS>MOLECULE
ZINC35421781
   61    65     0     0     0
SMALL
USER_CHARGES

@<TRIPOS>ATOM
      1 C1         -0.0187    1.5258    0.0104 C.3       1 <0>        -0.1467
      2 C2          0.0021   -0.0041    0.0020 C.3       1 <0>        -0.0813
      3 C3          0.7074   -0.4901   -1.2379 C.ar      1 <0>        -0.0851
      4 C4         -0.0105   -0.7185   -2.3969 C.ar      1 <0>        -0.1125
      5 C5          0.6365   -1.1643   -3.5342 C.ar      1 <0>        -0.1088
      6 C6          2.0016   -1.3812   -3.5126 C.ar      1 <0>        -0.0832
      7 C7          2.7197   -1.1520   -2.3539 C.ar      1 <0>        -0.0908
      8 C8          2.0733   -0.7021   -1.2178 C.ar      1 <0>        -0.1115
      9 C9          2.7068   -1.8682   -4.7522 C.3       1 <0>         0.2512
     10 H1          1.9891   -2.3145   -5.4406 H         1 <0>         0.0876
     11 C10         3.4278   -0.7227   -5.4238 C.2       1 <0>        -0.4684
     12 C11         4.7429   -1.0421   -5.4344 C.2       1 <0>         0.2872
     13 C12         4.9281   -2.3591   -4.7946 C.2       1 <0>         0.5088
     14 O1          5.9964   -2.9202   -4.6508 O.2       1 <0>        -0.4634
     15 N1          3.7390   -2.8481   -4.3938 N.am      1 <0>        -0.5080
     16 C13         3.5272   -4.0583   -3.7575 C.2       1 <0>         0.4208
     17 N2          4.4053   -4.9695   -3.4074 N.2       1 <0>        -0.5350
     18 C14         4.0536   -6.1153   -2.7857 C.ar      1 <0>         0.1141
     19 C15         4.8932   -7.1704   -2.3588 C.ar      1 <0>        -0.0362
     20 C16         4.3698   -8.2741   -1.7379 C.ar      1 <0>        -0.1108
     21 C17         3.0073   -8.3977   -1.5057 C.ar      1 <0>        -0.0813
     22 C18         2.1569   -7.3849   -1.9094 C.ar      1 <0>        -0.0650
     23 C19         2.6720   -6.2757   -2.5326 C.ar      1 <0>        -0.1552
     24 S1          1.9894   -4.7754   -3.1959 S.3       1 <0>         0.0028
     25 C20         2.4600   -9.6235   -0.8209 C.3       1 <0>        -0.1065
     26 C21         6.3797   -7.0801   -2.5897 C.3       1 <0>        -0.1113
     27 O2          5.7318   -0.2752   -5.9505 O.3       1 <0>        -0.5915
     28 C22         2.8194    0.5000   -5.9614 C.2       1 <0>         0.4486
     29 O3          3.5194    1.3509   -6.4816 O.2       1 <0>        -0.4865
     30 C23         1.3717    0.6972   -5.8725 C.2       1 <0>        -0.1836
     31 C24         0.8118    1.8224   -6.3672 C.2       1 <0>        -0.0792
     32 C25        -0.6430    2.0206   -6.2778 C.ar      1 <0>        -0.0503
     33 C26        -1.4496    1.0486   -5.6761 C.ar      1 <0>        -0.1107
     34 C27        -2.8123    1.2419   -5.5963 C.ar      1 <0>        -0.1197
     35 C28        -3.3829    2.3938   -6.1097 C.ar      1 <0>        -0.1246
     36 C29        -2.5919    3.3601   -6.7070 C.ar      1 <0>        -0.1219
     37 C30        -1.2269    3.1848   -6.7890 C.ar      1 <0>        -0.1072
     38 H2          1.0039    1.9031    0.0027 H         1 <0>         0.0559
     39 H3         -0.5459    1.8868   -0.8726 H         1 <0>         0.0564
     40 H4         -0.5289    1.8773    0.9072 H         1 <0>         0.0537
     41 H5          0.5293   -0.3651    0.8851 H         1 <0>         0.0677
     42 H6         -1.0205   -0.3814    0.0098 H         1 <0>         0.0686
     43 H7         -1.0770   -0.5490   -2.4137 H         1 <0>         0.1197
     44 H8          0.0755   -1.3434   -4.4395 H         1 <0>         0.1219
     45 H9          3.7861   -1.3218   -2.3370 H         1 <0>         0.1132
     46 H10         2.6349   -0.5194   -0.3136 H         1 <0>         0.1172
     47 H11         5.0328   -9.0661   -1.4223 H         1 <0>         0.1286
     48 H12         1.0940   -7.4665   -1.7362 H         1 <0>         0.1281
     49 H13         2.4419   -9.4602    0.2566 H         1 <0>         0.0707
     50 H14         1.4478   -9.8167   -1.1762 H         1 <0>         0.0665
     51 H15         3.0945  -10.4803   -1.0479 H         1 <0>         0.0676
     52 H16         6.8518   -6.5987   -1.7332 H         1 <0>         0.0706
     53 H17         6.7895   -8.0823   -2.7147 H         1 <0>         0.0636
     54 H18         6.5728   -6.4938   -3.4881 H         1 <0>         0.0784
     55 H19         0.7513   -0.0570   -5.4113 H         1 <0>         0.1256
     56 H20         1.4322    2.5766   -6.8283 H         1 <0>         0.1302
     57 H21        -1.0059    0.1491   -5.2754 H         1 <0>         0.1258
     58 H22        -3.4363    0.4923   -5.1325 H         1 <0>         0.1214
     59 H23        -4.4510    2.5393   -6.0441 H         1 <0>         0.1183
     60 H24        -3.0448    4.2560   -7.1054 H         1 <0>         0.1205
     61 H25        -0.6105    3.9420   -7.2507 H         1 <0>         0.1248
@<TRIPOS>BOND
     1    1    2 1
     2    1   38 1
     3    1   39 1
     4    1   40 1
     5    2    3 1
     6    2   41 1
     7    2   42 1
     8    3    8 ar
     9    3    4 ar
    10    4    5 ar
    11    4   43 1
    12    5    6 ar
    13    5   44 1
    14    6    7 ar
    15    6    9 1
    16    7    8 ar
    17    7   45 1
    18    8   46 1
    19    9   10 1
    20    9   15 1
    21    9   11 1
    22   11   12 2
    23   11   28 1
    24   12   13 1
    25   12   27 1
    26   13   14 2
    27   13   15 am
    28   15   16 1
    29   16   24 1
    30   16   17 2
    31   17   18 1
    32   18   23 ar
    33   18   19 ar
    34   19   20 ar
    35   19   26 1
    36   20   21 ar
    37   20   47 1
    38   21   22 ar
    39   21   25 1
    40   22   23 ar
    41   22   48 1
    42   23   24 1
    43   25   49 1
    44   25   50 1
    45   25   51 1
    46   26   52 1
    47   26   53 1
    48   26   54 1
    49   28   29 2
    50   28   30 1
    51   30   31 2
    52   30   55 1
    53   31   32 1
    54   31   56 1
    55   32   37 ar
    56   32   33 ar
    57   33   34 ar
    58   33   57 1
    59   34   35 ar
    60   34   58 1
    61   35   36 ar
    62   35   59 1
    63   36   37 ar
    64   36   60 1
    65   37   61 1
@<TRIPOS>MOLECULE
ZINC35709883
   60    63     0     0     0
SMALL
USER_CHARGES

@<TRIPOS>ATOM
      1 C1          3.7791   -2.8156    2.5627 C.3       1 <0>        -0.1106
      2 C2          2.6388   -2.6620    1.5895 C.ar      1 <0>        -0.1273
      3 C3          2.7170   -3.2378    0.3364 C.ar      1 <0>        -0.0999
      4 C4          1.6712   -3.0974   -0.5571 C.ar      1 <0>        -0.1469
      5 C5          0.5435   -2.3809   -0.1995 C.ar      1 <0>        -0.1041
      6 C6          0.4589   -1.8028    1.0517 C.ar      1 <0>        -0.1399
      7 C7          1.5057   -1.9464    1.9537 C.ar      1 <0>         0.1616
      8 N1          1.4210   -1.3668    3.2233 N.am      1 <0>        -0.6629
      9 C8          0.2210   -1.0105    3.7228 C.2       1 <0>         0.6178
     10 O1         -0.7982   -1.2738    3.1072 O.2       1 <0>        -0.5256
     11 C9          0.1444   -0.3367    4.9507 C.2       1 <0>        -0.3967
     12 C10         0.2487   -1.0191    6.1459 C.2       1 <0>         0.2442
     13 N2          0.1741   -0.3706    7.2977 N.2       1 <0>        -0.5957
     14 C11         0.0017    0.9292    7.4179 C.2       1 <0>         0.3240
     15 N3         -0.1236    1.7832    6.3577 N.pl3     1 <0>        -0.5210
     16 C12        -0.0489    1.1621    5.0085 C.3       1 <0>         0.2729
     17 H1         -0.9720    1.4020    4.4809 H         1 <0>         0.0723
     18 C13         1.0888    1.8058    4.2585 C.ar      1 <0>        -0.0700
     19 C14         2.3469    1.8639    4.8284 C.ar      1 <0>        -0.0798
     20 C15         3.3907    2.4541    4.1410 C.ar      1 <0>        -0.1079
     21 C16         3.1761    2.9870    2.8823 C.ar      1 <0>        -0.0310
     22 C17         1.9167    2.9286    2.3125 C.ar      1 <0>        -0.1056
     23 C18         0.8751    2.3330    2.9985 C.ar      1 <0>        -0.0871
     24 Cl1         4.4865    3.7290    2.0186 Cl        1 <0>        -0.0818
     25 C19        -0.2994    3.1216    6.6484 C.2       1 <0>         0.2352
     26 C20        -0.3338    3.4811    7.9504 C.2       1 <0>        -0.3067
     27 S1         -0.1157    1.9149    8.7713 S.3       1 <0>         0.1223
     28 C21        -0.4437    4.1200    5.5791 C.2       1 <0>        -0.4715
     29 C22        -0.4655    5.4323    5.8816 C.2       1 <0>         0.5042
     30 O2         -0.2233    5.8391    7.1515 O.3       1 <0>        -0.7035
     31 N4         -0.7354    6.3658    4.8951 N.pl3     1 <0>        -0.7507
     32 C23        -0.6501    7.7967    5.1976 C.3       1 <0>         0.1498
     33 C24         0.7787    8.2856    4.9520 C.3       1 <0>        -0.1576
     34 C25        -1.6152    8.5673    4.2944 C.3       1 <0>        -0.1570
     35 C26         0.4482   -2.5128    6.1398 C.3       1 <0>        -0.1050
     36 H2          3.5798   -3.6573    3.2261 H         1 <0>         0.0695
     37 H3          4.7033   -2.9964    2.0139 H         1 <0>         0.0682
     38 H4          3.8789   -1.9042    3.1522 H         1 <0>         0.0599
     39 H5          3.5962   -3.7979    0.0541 H         1 <0>         0.1203
     40 H6          1.7352   -3.5479   -1.5365 H         1 <0>         0.1171
     41 H7         -0.2716   -2.2731   -0.8997 H         1 <0>         0.1204
     42 H8         -0.4218   -1.2432    1.3302 H         1 <0>         0.1562
     43 H9          2.2259   -1.2212    3.7447 H         1 <0>         0.4078
     44 H10         2.5142    1.4482    5.8110 H         1 <0>         0.1181
     45 H11         4.3735    2.4997    4.5864 H         1 <0>         0.1283
     46 H12         1.7486    3.3446    1.3302 H         1 <0>         0.1287
     47 H13        -0.1070    2.2832    2.5519 H         1 <0>         0.1256
     48 H14        -0.4605    4.4631    8.3816 H         1 <0>         0.2301
     49 H15        -0.5321    3.8013    4.5510 H         1 <0>         0.0836
     50 H16        -0.9809    6.0723    4.0038 H         1 <0>         0.3822
     51 H17        -0.9171    7.9640    6.2411 H         1 <0>         0.0823
     52 H18         1.0457    8.1183    3.9086 H         1 <0>         0.0444
     53 H19         0.8421    9.3502    5.1771 H         1 <0>         0.0490
     54 H20         1.4662    7.7366    5.5955 H         1 <0>         0.0582
     55 H21        -2.6331    8.2189    4.4694 H         1 <0>         0.0552
     56 H22        -1.5517    9.6319    4.5195 H         1 <0>         0.0595
     57 H23        -1.3482    8.3999    3.2509 H         1 <0>         0.0506
     58 H24         1.5125   -2.7375    6.2102 H         1 <0>         0.0773
     59 H25        -0.0729   -2.9525    6.9902 H         1 <0>         0.0804
     60 H26         0.0495   -2.9288    5.2146 H         1 <0>         0.0685
@<TRIPOS>BOND
     1    1    2 1
     2    1   36 1
     3    1   37 1
     4    1   38 1
     5    2    7 ar
     6    2    3 ar
     7    3    4 ar
     8    3   39 1
     9    4    5 ar
    10    4   40 1
    11    5    6 ar
    12    5   41 1
    13    6    7 ar
    14    6   42 1
    15    7    8 1
    16    8    9 am
    17    8   43 1
    18    9   10 2
    19    9   11 1
    20   11   16 1
    21   11   12 2
    22   12   13 1
    23   12   35 1
    24   13   14 2
    25   14   27 1
    26   14   15 1
    27   15   16 1
    28   15   25 1
    29   16   17 1
    30   16   18 1
    31   18   23 ar
    32   18   19 ar
    33   19   20 ar
    34   19   44 1
    35   20   21 ar
    36   20   45 1
    37   21   22 ar
    38   21   24 1
    39   22   23 ar
    40   22   46 1
    41   23   47 1
    42   25   26 2
    43   25   28 1
    44   26   27 1
    45   26   48 1
    46   28   29 2
    47   28   49 1
    48   29   30 1
    49   29   31 1
    50   31   32 1
    51   31   50 1
    52   32   33 1
    53   32   34 1
    54   32   51 1
    55   33   52 1
    56   33   53 1
    57   33   54 1
    58   34   55 1
    59   34   56 1
    60   34   57 1
    61   35   58 1
    62   35   59 1
    63   35   60 1
@<TRIPOS>MOLECULE
ZINC36071986
   69    72     0     0     0
SMALL
USER_CHARGES

@<TRIPOS>ATOM
      1 C1         -0.5873    1.1534    2.4989 C.3       1 <0>        -0.0894
      2 C2         -0.2965   -0.0305    1.6130 C.2       1 <0>         0.2944
      3 C3         -1.2764   -0.5111    0.7680 C.2       1 <0>        -0.4099
      4 C4         -0.9366   -1.7007   -0.1019 C.3       1 <0>         0.2560
      5 H1         -1.6461   -2.4962    0.1255 H         1 <0>         0.0634
      6 N1          0.4353   -2.2610    0.0238 N.pl3     1 <0>        -0.5138
      7 C5          0.9609   -3.3355   -0.6660 C.2       1 <0>         0.2308
      8 C6          2.2390   -3.6854   -0.4018 C.2       1 <0>        -0.3070
      9 S1          2.7023   -2.4861    0.8317 S.3       1 <0>         0.1319
     10 C7          1.2570   -1.6377    0.9212 C.2       1 <0>         0.3231
     11 N2          0.8986   -0.5988    1.6466 N.2       1 <0>        -0.5975
     12 C8          0.1583   -4.0730   -1.6523 C.2       1 <0>        -0.4727
     13 C9          0.6501   -5.1908   -2.2203 C.2       1 <0>         0.5010
     14 O1          1.9261   -5.5731   -1.9702 O.3       1 <0>        -0.7033
     15 N3         -0.1481   -5.9496   -3.0597 N.pl3     1 <0>        -0.7547
     16 C10         0.3476   -7.2227   -3.5886 C.3       1 <0>         0.1454
     17 C11        -0.6679   -7.7927   -4.5809 C.3       1 <0>        -0.1095
     18 C12        -0.7733   -6.8645   -5.7926 C.3       1 <0>        -0.1432
     19 C13        -0.2106   -9.1791   -5.0388 C.3       1 <0>        -0.1423
     20 C14        -1.1426   -1.2981   -1.5394 C.ar      1 <0>        -0.0798
     21 C15        -2.1589   -1.8731   -2.2793 C.ar      1 <0>        -0.1047
     22 C16        -2.3479   -1.5038   -3.5980 C.ar      1 <0>        -0.1118
     23 C17        -1.5208   -0.5593   -4.1766 C.ar      1 <0>        -0.0754
     24 C18        -0.5051    0.0163   -3.4365 C.ar      1 <0>        -0.1095
     25 C19        -0.3188   -0.3498   -2.1165 C.ar      1 <0>        -0.0838
     26 C20        -1.7262   -0.1575   -5.6145 C.3       1 <0>        -0.0534
     27 C21        -2.0201    1.3422   -5.6879 C.3       1 <0>        -0.1425
     28 C22        -0.4613   -0.4693   -6.4168 C.3       1 <0>        -0.1434
     29 C23        -2.5456    0.0839    0.7180 C.2       1 <0>         0.5963
     30 O2         -2.7619    1.1119    1.3373 O.2       1 <0>        -0.5531
     31 N4         -3.5261   -0.4806   -0.0144 N.am      1 <0>        -0.6845
     32 C24        -4.7410    0.1888   -0.1904 C.ar      1 <0>         0.1730
     33 C25        -4.7652    1.5745   -0.2832 C.ar      1 <0>        -0.1212
     34 C26        -5.9668    2.2325   -0.4575 C.ar      1 <0>        -0.1013
     35 C27        -7.1451    1.5134   -0.5395 C.ar      1 <0>        -0.1499
     36 C28        -7.1247    0.1338   -0.4470 C.ar      1 <0>        -0.1006
     37 C29        -5.9258   -0.5308   -0.2785 C.ar      1 <0>        -0.1588
     38 H2          0.2980    1.3924    3.0882 H         1 <0>         0.0608
     39 H3         -0.8558    2.0113    1.8824 H         1 <0>         0.0886
     40 H4         -1.4144    0.9129    3.1669 H         1 <0>         0.0822
     41 H5          2.8271   -4.4849   -0.8276 H         1 <0>         0.2362
     42 H6         -0.8256   -3.7184   -1.9215 H         1 <0>         0.0915
     43 H7         -1.0354   -5.6382   -3.2975 H         1 <0>         0.3828
     44 H8          1.2988   -7.0598   -4.0954 H         1 <0>         0.0541
     45 H9          0.4888   -7.9266   -2.7684 H         1 <0>         0.0448
     46 H10        -1.6420   -7.8724   -4.0984 H         1 <0>         0.0684
     47 H11        -1.4967   -7.2706   -6.4996 H         1 <0>         0.0486
     48 H12        -1.0990   -5.8768   -5.4665 H         1 <0>         0.0558
     49 H13         0.2009   -6.7849   -6.2751 H         1 <0>         0.0539
     50 H14        -0.1356   -9.8404   -4.1755 H         1 <0>         0.0548
     51 H15        -0.9341   -9.5853   -5.7457 H         1 <0>         0.0527
     52 H16         0.7635   -9.0995   -5.5212 H         1 <0>         0.0556
     53 H17        -2.8050   -2.6110   -1.8273 H         1 <0>         0.1139
     54 H18        -3.1415   -1.9536   -4.1763 H         1 <0>         0.1172
     55 H19         0.1413    0.7539   -3.8886 H         1 <0>         0.1152
     56 H20         0.4724    0.1026   -1.5372 H         1 <0>         0.1073
     57 H21        -2.5666   -0.7133   -6.0305 H         1 <0>         0.0740
     58 H22        -1.1798    1.8979   -5.2719 H         1 <0>         0.0554
     59 H23        -2.1687    1.6328   -6.7279 H         1 <0>         0.0545
     60 H24        -2.9213    1.5643   -5.1163 H         1 <0>         0.0550
     61 H25        -0.2520   -1.5377   -6.3645 H         1 <0>         0.0574
     62 H26        -0.6099   -0.1787   -7.4568 H         1 <0>         0.0541
     63 H27         0.3790    0.0864   -6.0008 H         1 <0>         0.0557
     64 H28        -3.3890   -1.3512   -0.4195 H         1 <0>         0.4033
     65 H29        -3.8453    2.1367   -0.2189 H         1 <0>         0.1318
     66 H30        -5.9863    3.3100   -0.5294 H         1 <0>         0.1197
     67 H31        -8.0835    2.0305   -0.6758 H         1 <0>         0.1168
     68 H32        -8.0468   -0.4248   -0.5108 H         1 <0>         0.1199
     69 H33        -5.9100   -1.6085   -0.2112 H         1 <0>         0.1195
@<TRIPOS>BOND
     1    1    2 1
     2    1   38 1
     3    1   39 1
     4    1   40 1
     5    2   11 1
     6    2    3 2
     7    3    4 1
     8    3   29 1
     9    4    5 1
    10    4    6 1
    11    4   20 1
    12    6   10 1
    13    6    7 1
    14    7    8 2
    15    7   12 1
    16    8    9 1
    17    8   41 1
    18    9   10 1
    19   10   11 2
    20   12   13 2
    21   12   42 1
    22   13   14 1
    23   13   15 1
    24   15   16 1
    25   15   43 1
    26   16   17 1
    27   16   44 1
    28   16   45 1
    29   17   18 1
    30   17   19 1
    31   17   46 1
    32   18   47 1
    33   18   48 1
    34   18   49 1
    35   19   50 1
    36   19   51 1
    37   19   52 1
    38   20   25 ar
    39   20   21 ar
    40   21   22 ar
    41   21   53 1
    42   22   23 ar
    43   22   54 1
    44   23   24 ar
    45   23   26 1
    46   24   25 ar
    47   24   55 1
    48   25   56 1
    49   26   27 1
    50   26   28 1
    51   26   57 1
    52   27   58 1
    53   27   59 1
    54   27   60 1
    55   28   61 1
    56   28   62 1
    57   28   63 1
    58   29   30 2
    59   29   31 am
    60   31   32 1
    61   31   64 1
    62   32   37 ar
    63   32   33 ar
    64   33   34 ar
    65   33   65 1
    66   34   35 ar
    67   34   66 1
    68   35   36 ar
    69   35   67 1
    70   36   37 ar
    71   36   68 1
    72   37   69 1
@<TRIPOS>MOLECULE
ZINC39899094
   64    68     0     0     0
SMALL
USER_CHARGES

@<TRIPOS>ATOM
      1 C1         -0.1245    0.3786    1.0720 C.3       1 <0>        -0.1388
      2 C2          0.0003    1.3078   -0.1371 C.3       1 <0>        -0.0315
      3 C3         -1.3948    1.7323   -0.6001 C.3       1 <0>        -0.1392
      4 C4          0.8072    2.5476    0.2536 C.3       1 <0>        -0.1459
      5 C5          0.7024    0.5837   -1.2568 C.ar      1 <0>        -0.0567
      6 C6          1.8943    1.0740   -1.7567 C.ar      1 <0>        -0.1178
      7 C7          2.5384    0.4098   -2.7838 C.ar      1 <0>        -0.0881
      8 C8          1.9909   -0.7450   -3.3106 C.ar      1 <0>        -0.1040
      9 C9          0.7995   -1.2358   -2.8101 C.ar      1 <0>        -0.1012
     10 C10         0.1576   -0.5740   -1.7801 C.ar      1 <0>        -0.1074
     11 C11         2.6926   -1.4685   -4.4310 C.3       1 <0>         0.2478
     12 H1          2.2280   -2.4402   -4.5985 H         1 <0>         0.1086
     13 C12         2.6421   -0.6467   -5.6897 C.2       1 <0>        -0.1675
     14 C13         1.8506   -0.0319   -6.6659 C.2       1 <0>         0.1130
     15 N1          2.6646    0.5525   -7.5231 N.2       1 <0>        -0.2244
     16 N2          3.8909    0.3676   -7.1849 N.pl3     1 <0>        -0.3325
     17 H2          4.6596    0.7071   -7.6695 H         1 <0>         0.4538
     18 C14         3.9508   -0.3778   -6.0418 C.2       1 <0>        -0.0609
     19 C15         4.8374   -0.9994   -5.0517 C.2       1 <0>         0.5998
     20 O1          6.0522   -0.9468   -5.0777 O.2       1 <0>        -0.5164
     21 N3          4.1159   -1.6372   -4.1105 N.am      1 <0>        -0.5882
     22 C16         4.6563   -2.3717   -2.9639 C.3       1 <0>         0.1858
     23 C17         4.8757   -3.8122   -3.3483 C.ar      1 <0>        -0.1558
     24 C18         3.8611   -4.7352   -3.1742 C.ar      1 <0>        -0.0608
     25 C19         4.0599   -6.0564   -3.5254 C.ar      1 <0>        -0.1548
     26 C20         5.2787   -6.4567   -4.0534 C.ar      1 <0>         0.1362
     27 C21         6.2951   -5.5286   -4.2274 C.ar      1 <0>        -0.2106
     28 C22         6.0895   -4.2076   -3.8796 C.ar      1 <0>        -0.0526
     29 O2          5.4769   -7.7560   -4.3992 O.3       1 <0>        -0.3169
     30 C23         6.7565   -8.0963   -4.9367 C.3       1 <0>         0.0261
     31 C24         0.3678   -0.0372   -6.7262 C.ar      1 <0>        -0.0266
     32 C25        -0.3660   -0.7999   -5.8212 C.ar      1 <0>        -0.0752
     33 C26        -1.7460   -0.8016   -5.8813 C.ar      1 <0>        -0.0424
     34 C27        -2.4025   -0.0470   -6.8389 C.ar      1 <0>        -0.0859
     35 C28        -1.6827    0.7126   -7.7414 C.ar      1 <0>        -0.1335
     36 C29        -0.2982    0.7277   -7.6876 C.ar      1 <0>         0.1386
     37 O3          0.4100    1.4792   -8.5709 O.3       1 <0>        -0.4789
     38 Cl1        -2.6601   -1.7531   -4.7532 Cl        1 <0>        -0.0607
     39 H3         -0.6994   -0.5047    0.7937 H         1 <0>         0.0577
     40 H4          0.8694    0.0761    1.4019 H         1 <0>         0.0565
     41 H5         -0.6324    0.9023    1.8818 H         1 <0>         0.0593
     42 H6         -1.9027    2.2561    0.2097 H         1 <0>         0.0592
     43 H7         -1.3060    2.3943   -1.4615 H         1 <0>         0.0565
     44 H8         -1.9697    0.8491   -0.8785 H         1 <0>         0.0583
     45 H9          1.8011    2.2451    0.5834 H         1 <0>         0.0587
     46 H10         0.8961    3.2096   -0.6078 H         1 <0>         0.0584
     47 H11         0.2993    3.0713    1.0634 H         1 <0>         0.0594
     48 H12         2.3220    1.9763   -1.3452 H         1 <0>         0.1270
     49 H13         3.4692    0.7933   -3.1749 H         1 <0>         0.1143
     50 H14         0.3716   -2.1379   -3.2219 H         1 <0>         0.1240
     51 H15        -0.7713   -0.9595   -1.3865 H         1 <0>         0.1245
     52 H16         5.6049   -1.9276   -2.6622 H         1 <0>         0.0980
     53 H17         3.9510   -2.3204   -2.1344 H         1 <0>         0.0983
     54 H18         2.9124   -4.4231   -2.7631 H         1 <0>         0.1301
     55 H19         3.2673   -6.7772   -3.3886 H         1 <0>         0.1326
     56 H20         7.2448   -5.8378   -4.6383 H         1 <0>         0.1291
     57 H21         6.8788   -3.4838   -4.0189 H         1 <0>         0.1291
     58 H22         7.5308   -7.8667   -4.2047 H         1 <0>         0.0570
     59 H23         6.7812   -9.1608   -5.1699 H         1 <0>         0.1019
     60 H24         6.9335   -7.5211   -5.8455 H         1 <0>         0.0562
     61 H25         0.1432   -1.3897   -5.0734 H         1 <0>         0.1407
     62 H26        -3.4817   -0.0524   -6.8809 H         1 <0>         0.1409
     63 H27        -2.2000    1.2990   -8.4864 H         1 <0>         0.1434
     64 H28         0.6402    1.0143   -9.3869 H         1 <0>         0.3940
@<TRIPOS>BOND
     1    1    2 1
     2    1   39 1
     3    1   40 1
     4    1   41 1
     5    2    3 1
     6    2    4 1
     7    2    5 1
     8    3   42 1
     9    3   43 1
    10    3   44 1
    11    4   45 1
    12    4   46 1
    13    4   47 1
    14    5   10 ar
    15    5    6 ar
    16    6    7 ar
    17    6   48 1
    18    7    8 ar
    19    7   49 1
    20    8    9 ar
    21    8   11 1
    22    9   10 ar
    23    9   50 1
    24   10   51 1
    25   11   12 1
    26   11   21 1
    27   11   13 1
    28   13   18 2
    29   13   14 1
    30   14   15 2
    31   14   31 1
    32   15   16 1
    33   16   17 1
    34   16   18 1
    35   18   19 1
    36   19   20 2
    37   19   21 am
    38   21   22 1
    39   22   23 1
    40   22   52 1
    41   22   53 1
    42   23   28 ar
    43   23   24 ar
    44   24   25 ar
    45   24   54 1
    46   25   26 ar
    47   25   55 1
    48   26   27 ar
    49   26   29 1
    50   27   28 ar
    51   27   56 1
    52   28   57 1
    53   29   30 1
    54   30   58 1
    55   30   59 1
    56   30   60 1
    57   31   36 ar
    58   31   32 ar
    59   32   33 ar
    60   32   61 1
    61   33   34 ar
    62   33   38 1
    63   34   35 ar
    64   34   62 1
    65   35   36 ar
    66   35   63 1
    67   36   37 1
    68   37   64 1
@<TRIPOS>MOLECULE
ZINC59105280
   58    60     0     0     0
SMALL
USER_CHARGES

@<TRIPOS>ATOM
      1 C1         -0.4465    1.4004    0.9222 C.3       1 <0>        -0.1499
      2 C2         -0.3155   -0.0998    0.6522 C.3       1 <0>         0.0486
      3 O1         -1.5337   -0.5906    0.0890 O.3       1 <0>        -0.3024
      4 C3         -1.5847   -1.9158   -0.2124 C.ar      1 <0>         0.1253
      5 C4         -0.4911   -2.7218    0.0340 C.ar      1 <0>        -0.1797
      6 C5         -0.5470   -4.0870   -0.2777 C.ar      1 <0>        -0.0034
      7 C6         -1.7132   -4.6259   -0.8379 C.ar      1 <0>        -0.1267
      8 C7         -2.7992   -3.8131   -1.0799 C.ar      1 <0>        -0.0107
      9 C8         -2.7434   -2.4604   -0.7646 C.ar      1 <0>         0.0695
     10 O2         -3.8196   -1.6654   -1.0001 O.3       1 <0>        -0.3133
     11 C9         -3.8937   -1.0365   -2.2811 C.3       1 <0>         0.0602
     12 C10        -5.1645   -0.1882   -2.3600 C.3       1 <0>        -0.1477
     13 Cl1        -4.2433   -4.4814   -1.7738 Cl        1 <0>        -0.0465
     14 C11         0.6108   -4.9484   -0.0191 C.2       1 <0>        -0.0351
     15 C12         0.4478   -6.2985    0.0781 C.2       1 <0>        -0.1026
     16 C13         1.4458   -7.2966    0.1883 C.2       1 <0>         0.3441
     17 O3          2.7563   -6.9631    0.2078 O.3       1 <0>        -0.5796
     18 C14         1.0565   -8.6081    0.2752 C.2       1 <0>        -0.4199
     19 C15        -0.3910   -8.8709    0.2461 C.2       1 <0>         0.3004
     20 S1         -1.0737   -7.2284    0.1047 S.3       1 <0>        -0.1061
     21 N1         -1.0241  -10.0279    0.3126 N.2       1 <0>        -0.4874
     22 C16        -2.3881  -10.0632    0.2690 C.ar      1 <0>         0.1223
     23 C17        -3.1389   -9.1608    1.0285 C.ar      1 <0>        -0.1614
     24 C18        -4.5163   -9.2027    0.9793 C.ar      1 <0>        -0.0958
     25 C19        -5.1558  -10.1350    0.1810 C.ar      1 <0>        -0.1209
     26 C20        -4.4195  -11.0316   -0.5738 C.ar      1 <0>        -0.1046
     27 C21        -3.0413  -10.9981   -0.5398 C.ar      1 <0>        -0.1197
     28 C22        -6.6615  -10.1746    0.1337 C.3       1 <0>        -0.1058
     29 C23         2.0318   -9.6928    0.3908 C.2       1 <0>         0.5376
     30 O4          3.2218   -9.4410    0.4120 O.2       1 <0>        -0.5307
     31 O5          1.6114  -10.9719    0.4737 O.3       1 <0>        -0.3407
     32 C24         2.6183  -11.9799    0.5845 C.3       1 <0>         0.0632
     33 C25         1.9552  -13.3563    0.6666 C.3       1 <0>        -0.1439
     34 H1          0.4827    1.7748    1.3518 H         1 <0>         0.0785
     35 H2         -0.6503    1.9216   -0.0132 H         1 <0>         0.0649
     36 H3         -1.2654    1.5738    1.6205 H         1 <0>         0.0664
     37 H4          0.5033   -0.2731   -0.0461 H         1 <0>         0.0645
     38 H5         -0.1118   -0.6210    1.5876 H         1 <0>         0.0657
     39 H6          0.4052   -2.3012    0.4655 H         1 <0>         0.1431
     40 H7         -1.7605   -5.6774   -1.0800 H         1 <0>         0.1599
     41 H8         -3.0215   -0.3986   -2.4237 H         1 <0>         0.0525
     42 H9         -3.9171   -1.7992   -3.0595 H         1 <0>         0.0524
     43 H10        -5.1411    0.5745   -1.5816 H         1 <0>         0.0640
     44 H11        -5.2210    0.2915   -3.3371 H         1 <0>         0.0723
     45 H12        -6.0367   -0.8261   -2.2174 H         1 <0>         0.0643
     46 H13         1.5928   -4.5135    0.0944 H         1 <0>         0.1545
     47 H14        -2.6413   -8.4331    1.6525 H         1 <0>         0.1251
     48 H15        -5.0977   -8.5063    1.5654 H         1 <0>         0.1163
     49 H16        -4.9255  -11.7565   -1.1941 H         1 <0>         0.1176
     50 H17        -2.4680  -11.6951   -1.1330 H         1 <0>         0.1229
     51 H18        -7.0174   -9.5186   -0.6608 H         1 <0>         0.0634
     52 H19        -6.9922  -11.1947   -0.0620 H         1 <0>         0.0601
     53 H20        -7.0640   -9.8392    1.0895 H         1 <0>         0.0605
     54 H21         3.2686  -11.9414   -0.2894 H         1 <0>         0.0527
     55 H22         3.2084  -11.8066    1.4844 H         1 <0>         0.0525
     56 H23         1.3049  -13.3947    1.5405 H         1 <0>         0.0616
     57 H24         1.3651  -13.5296   -0.2333 H         1 <0>         0.0617
     58 H25         2.7232  -14.1251    0.7511 H         1 <0>         0.0659
@<TRIPOS>BOND
     1    1    2 1
     2    1   34 1
     3    1   35 1
     4    1   36 1
     5    2    3 1
     6    2   37 1
     7    2   38 1
     8    3    4 1
     9    4    9 ar
    10    4    5 ar
    11    5    6 ar
    12    5   39 1
    13    6    7 ar
    14    6   14 1
    15    7    8 ar
    16    7   40 1
    17    8    9 ar
    18    8   13 1
    19    9   10 1
    20   10   11 1
    21   11   12 1
    22   11   41 1
    23   11   42 1
    24   12   43 1
    25   12   44 1
    26   12   45 1
    27   14   15 2
    28   14   46 1
    29   15   20 1
    30   15   16 1
    31   16   17 1
    32   16   18 2
    33   18   19 1
    34   18   29 1
    35   19   21 2
    36   19   20 1
    37   21   22 1
    38   22   27 ar
    39   22   23 ar
    40   23   24 ar
    41   23   47 1
    42   24   25 ar
    43   24   48 1
    44   25   26 ar
    45   25   28 1
    46   26   27 ar
    47   26   49 1
    48   27   50 1
    49   28   51 1
    50   28   52 1
    51   28   53 1
    52   29   30 2
    53   29   31 1
    54   31   32 1
    55   32   33 1
    56   32   54 1
    57   32   55 1
    58   33   56 1
    59   33   57 1
    60   33   58 1
@<TRIPOS>MOLECULE
ZINC09167792
   63    68     0     0     0
SMALL
USER_CHARGES
(4-fluorophenyl)-[(4-fluorophenyl)methylene]-(4-methoxyphenyl)-methyl-BLAH
@<TRIPOS>ATOM
      1 C1         -9.7702    3.3730   -0.7317 C.3       1 <0>        -0.1474
      2 C2         -9.4198    1.8881   -0.6177 C.3       1 <0>        -0.0852
      3 H1         -9.4020    1.4403   -1.6113 H         1 <0>         0.0750
      4 C3        -10.4694    1.1778    0.2489 C.3       1 <0>        -0.0820
      5 C4        -10.1072   -0.2921    0.2767 C.2       1 <0>        -0.0681
      6 C5        -11.0514   -1.2405    0.1656 C.2       1 <0>        -0.0783
      7 C6        -12.4767   -0.8667    0.1816 C.ar      1 <0>        -0.0662
      8 C7        -12.9200    0.1737    1.0029 C.ar      1 <0>        -0.0810
      9 C8        -14.2537    0.5228    1.0087 C.ar      1 <0>        -0.1547
     10 C9        -15.1563   -0.1634    0.2113 C.ar      1 <0>         0.0991
     11 C10       -14.7237   -1.2002   -0.6008 C.ar      1 <0>        -0.1533
     12 C11       -13.3916   -1.5547   -0.6202 C.ar      1 <0>        -0.0759
     13 F1        -16.4628    0.1800    0.2252 F         1 <0>        -0.1393
     14 C12        -8.6803   -0.6502    0.4305 C.2       1 <0>         0.1658
     15 C13        -7.7273    0.2940    0.3071 C.2       1 <0>        -0.1914
     16 C14        -8.0484    1.7357    0.0356 C.3       1 <0>        -0.0564
     17 C15        -6.2801   -0.1274    0.4508 C.3       1 <0>         0.2371
     18 H2         -5.8402    0.4598    1.2569 H         1 <0>         0.0856
     19 N1         -6.0089   -1.5609    0.7314 N.pl3     1 <0>        -0.5485
     20 C16        -4.7804   -2.1699    0.9045 C.2       1 <0>         0.1638
     21 C17        -4.7005   -3.4894    1.1497 C.2       1 <0>        -0.2203
     22 S1         -6.4198   -3.9695    1.1625 S.3       1 <0>         0.0886
     23 C18        -7.1206   -2.3669    0.8284 C.2       1 <0>         0.3666
     24 N2         -8.3415   -1.9451    0.6902 N.2       1 <0>        -0.5297
     25 C19        -3.5432   -1.3645    0.8131 C.ar      1 <0>        -0.0872
     26 C20        -2.4882   -1.7918    0.0054 C.ar      1 <0>        -0.0461
     27 C21        -1.3366   -1.0379   -0.0774 C.ar      1 <0>        -0.1481
     28 C22        -1.2259    0.1449    0.6410 C.ar      1 <0>         0.1456
     29 C23        -2.2710    0.5707    1.4496 C.ar      1 <0>        -0.2043
     30 C24        -3.4278   -0.1750    1.5341 C.ar      1 <0>        -0.0552
     31 O1         -0.0892    0.8852    0.5567 O.3       1 <0>        -0.3136
     32 C25        -0.0421    2.0911    1.3219 C.3       1 <0>         0.0252
     33 C26        -5.5632    0.2376   -0.8235 C.ar      1 <0>        -0.1067
     34 C27        -5.5119   -0.6646   -1.8697 C.ar      1 <0>        -0.0657
     35 C28        -4.8588   -0.3291   -3.0406 C.ar      1 <0>        -0.1479
     36 C29        -4.2469    0.9070   -3.1616 C.ar      1 <0>         0.1064
     37 C30        -4.2945    1.8077   -2.1111 C.ar      1 <0>        -0.1481
     38 C31        -4.9526    1.4720   -0.9432 C.ar      1 <0>        -0.0734
     39 F2         -3.6042    1.2342   -4.3040 F         1 <0>        -0.1375
     40 H3         -9.0202    3.8776   -1.3408 H         1 <0>         0.0573
     41 H4        -10.7494    3.4805   -1.1982 H         1 <0>         0.0595
     42 H5         -9.7906    3.8189    0.2627 H         1 <0>         0.0574
     43 H6        -10.4517    1.5836    1.2604 H         1 <0>         0.0790
     44 H7        -11.4600    1.3078   -0.1868 H         1 <0>         0.0877
     45 H8        -10.7662   -2.2773    0.0645 H         1 <0>         0.1357
     46 H9        -12.2185    0.7059    1.6283 H         1 <0>         0.1377
     47 H10       -14.5967    1.3299    1.6391 H         1 <0>         0.1368
     48 H11       -15.4317   -1.7311   -1.2199 H         1 <0>         0.1369
     49 H12       -13.0557   -2.3622   -1.2538 H         1 <0>         0.1354
     50 H13        -8.0385    2.2863    0.9763 H         1 <0>         0.0762
     51 H14        -7.2896    2.1512   -0.6274 H         1 <0>         0.0762
     52 H15        -3.8230   -4.1004    1.3016 H         1 <0>         0.2086
     53 H16        -2.5738   -2.7115   -0.5543 H         1 <0>         0.1354
     54 H17        -0.5198   -1.3679   -0.7022 H         1 <0>         0.1366
     55 H18        -2.1795    1.4894    2.0101 H         1 <0>         0.1324
     56 H19        -4.2419    0.1590    2.1602 H         1 <0>         0.1222
     57 H20         0.9172    2.5841    1.1646 H         1 <0>         0.1032
     58 H21        -0.8474    2.7540    1.0054 H         1 <0>         0.0570
     59 H22        -0.1602    1.8552    2.3795 H         1 <0>         0.0577
     60 H23        -5.9858   -1.6303   -1.7736 H         1 <0>         0.1212
     61 H24        -4.8224   -1.0324   -3.8594 H         1 <0>         0.1356
     62 H25        -3.8178    2.7723   -2.2045 H         1 <0>         0.1364
     63 H26        -4.9901    2.1746   -0.1237 H         1 <0>         0.1306
@<TRIPOS>BOND
     1    1    2 1
     2    1   40 1
     3    1   41 1
     4    1   42 1
     5    2    3 1
     6    2   16 1
     7    2    4 1
     8    4    5 1
     9    4   43 1
    10    4   44 1
    11    5    6 2
    12    5   14 1
    13    6    7 1
    14    6   45 1
    15    7   12 ar
    16    7    8 ar
    17    8    9 ar
    18    8   46 1
    19    9   10 ar
    20    9   47 1
    21   10   11 ar
    22   10   13 1
    23   11   12 ar
    24   11   48 1
    25   12   49 1
    26   14   24 1
    27   14   15 2
    28   15   16 1
    29   15   17 1
    30   16   50 1
    31   16   51 1
    32   17   18 1
    33   17   19 1
    34   17   33 1
    35   19   23 1
    36   19   20 1
    37   20   21 2
    38   20   25 1
    39   21   22 1
    40   21   52 1
    41   22   23 1
    42   23   24 2
    43   25   30 ar
    44   25   26 ar
    45   26   27 ar
    46   26   53 1
    47   27   28 ar
    48   27   54 1
    49   28   29 ar
    50   28   31 1
    51   29   30 ar
    52   29   55 1
    53   30   56 1
    54   31   32 1
    55   32   57 1
    56   32   58 1
    57   32   59 1
    58   33   38 ar
    59   33   34 ar
    60   34   35 ar
    61   34   60 1
    62   35   36 ar
    63   35   61 1
    64   36   37 ar
    65   36   39 1
    66   37   38 ar
    67   37   62 1
    68   38   63 1
@<TRIPOS>MOLECULE
ZINC17195729
   65    71     0     0     0
SMALL
USER_CHARGES
(2,2-diphenylacetyl)-methyl-phenyl-BLAHone
@<TRIPOS>ATOM
      1 C1          1.1271   -1.2215    3.9841 C.3       1 <0>        -0.0926
      2 C2         -0.0485   -1.4383    3.0665 C.2       1 <0>        -0.1551
      3 C3         -0.0474   -1.2185    1.7826 C.2       1 <0>        -0.0574
      4 C4          0.9624   -0.7176    0.7746 C.3       1 <0>         0.0218
      5 H1          1.8200   -1.3884    0.7243 H         1 <0>         0.1148
      6 C5          0.1895   -0.7206   -0.5757 C.3       1 <0>        -0.0156
      7 H2          0.7954   -0.3528   -1.4038 H         1 <0>         0.1168
      8 C6         -1.0684    0.1211   -0.3501 C.2       1 <0>        -0.1306
      9 C7         -1.9214   -0.3164    0.5831 C.2       1 <0>        -0.1533
     10 C8         -1.4509   -1.5864    1.2693 C.3       1 <0>         0.2294
     11 C9         -1.2002   -2.6049    0.1924 C.ar      1 <0>        -0.0790
     12 C10        -0.3135   -2.1382   -0.7869 C.ar      1 <0>        -0.0804
     13 C11         0.0384   -2.9397   -1.8352 C.ar      1 <0>        -0.0990
     14 C12        -0.5008   -4.2163   -1.9195 C.ar      1 <0>        -0.1117
     15 C13        -1.3813   -4.6711   -0.9559 C.ar      1 <0>        -0.1127
     16 C14        -1.7344   -3.8556    0.1120 C.ar      1 <0>        -0.0858
     17 N1         -2.1970   -2.0081    2.4125 N.am      1 <0>        -0.5537
     18 C15        -1.3722   -1.9308    3.4867 C.2       1 <0>         0.5543
     19 O1         -1.6791   -2.2245    4.6258 O.2       1 <0>        -0.4635
     20 C16        -3.4838   -2.4086    2.4220 C.2       1 <0>         0.5489
     21 O2         -4.1499   -2.3323    1.4119 O.2       1 <0>        -0.4691
     22 C17        -4.0947   -2.9513    3.6883 C.3       1 <0>        -0.0167
     23 C18        -4.5141   -1.8067    4.5743 C.ar      1 <0>        -0.0712
     24 C19        -4.2051   -1.8264    5.9216 C.ar      1 <0>        -0.0787
     25 C20        -4.5860   -0.7744    6.7335 C.ar      1 <0>        -0.1195
     26 C21        -5.2841    0.2928    6.2000 C.ar      1 <0>        -0.1143
     27 C22        -5.5973    0.3102    4.8537 C.ar      1 <0>        -0.1194
     28 C23        -5.2126   -0.7397    4.0410 C.ar      1 <0>        -0.1185
     29 C24        -5.2997   -3.7889    3.3457 C.ar      1 <0>        -0.0819
     30 C25        -6.3629   -3.2249    2.6657 C.ar      1 <0>        -0.0798
     31 C26        -7.4664   -3.9945    2.3477 C.ar      1 <0>        -0.1226
     32 C27        -7.5107   -5.3255    2.7180 C.ar      1 <0>        -0.1126
     33 C28        -6.4495   -5.8883    3.4022 C.ar      1 <0>        -0.1228
     34 C29        -5.3442   -5.1199    3.7165 C.ar      1 <0>        -0.1067
     35 C30         1.4074    0.6792    1.1239 C.ar      1 <0>        -0.0771
     36 C31         0.4708    1.6831    1.2848 C.ar      1 <0>        -0.1145
     37 C32         0.8787    2.9632    1.6100 C.ar      1 <0>        -0.1180
     38 C33         2.2239    3.2418    1.7641 C.ar      1 <0>        -0.1152
     39 C34         3.1608    2.2391    1.5980 C.ar      1 <0>        -0.1181
     40 C35         2.7526    0.9578    1.2780 C.ar      1 <0>        -0.1073
     41 H3          0.8459   -1.4856    5.0035 H         1 <0>         0.0770
     42 H4          1.9591   -1.8481    3.6628 H         1 <0>         0.0769
     43 H5          1.4266   -0.1740    3.9496 H         1 <0>         0.0782
     44 H6         -1.2581    1.0216   -0.9154 H         1 <0>         0.1383
     45 H7         -2.8487    0.1822    0.8235 H         1 <0>         0.1397
     46 H8          0.7266   -2.5852   -2.5883 H         1 <0>         0.1313
     47 H9         -0.2298   -4.8591   -2.7440 H         1 <0>         0.1276
     48 H10        -1.7965   -5.6651   -1.0333 H         1 <0>         0.1265
     49 H11        -2.4221   -4.2076    0.8667 H         1 <0>         0.1161
     50 H12        -3.3617   -3.5657    4.2110 H         1 <0>         0.1209
     51 H13        -3.6632   -2.6621    6.3391 H         1 <0>         0.1260
     52 H14        -4.3410   -0.7879    7.7853 H         1 <0>         0.1247
     53 H15        -5.5846    1.1131    6.8350 H         1 <0>         0.1229
     54 H16        -6.1427    1.1440    4.4370 H         1 <0>         0.1228
     55 H17        -5.4576   -0.7262    2.9892 H         1 <0>         0.1204
     56 H18        -6.3300   -2.1839    2.3800 H         1 <0>         0.1243
     57 H19        -8.2953   -3.5549    1.8128 H         1 <0>         0.1228
     58 H20        -8.3742   -5.9259    2.4725 H         1 <0>         0.1226
     59 H21        -6.4842   -6.9283    3.6916 H         1 <0>         0.1241
     60 H22        -4.5153   -5.5595    4.2513 H         1 <0>         0.1217
     61 H23        -0.5799    1.4664    1.1600 H         1 <0>         0.1311
     62 H24         0.1467    3.7467    1.7394 H         1 <0>         0.1218
     63 H25         2.5429    4.2430    2.0138 H         1 <0>         0.1221
     64 H26         4.2118    2.4569    1.7181 H         1 <0>         0.1240
     65 H27         3.4846    0.1745    1.1479 H         1 <0>         0.1240
@<TRIPOS>BOND
     1    1    2 1
     2    1   41 1
     3    1   42 1
     4    1   43 1
     5    2   18 1
     6    2    3 2
     7    3   10 1
     8    3    4 1
     9    4    5 1
    10    4    6 1
    11    4   35 1
    12    6    7 1
    13    6   12 1
    14    6    8 1
    15    8    9 2
    16    8   44 1
    17    9   10 1
    18    9   45 1
    19   10   11 1
    20   10   17 1
    21   11   16 ar
    22   11   12 ar
    23   12   13 ar
    24   13   14 ar
    25   13   46 1
    26   14   15 ar
    27   14   47 1
    28   15   16 ar
    29   15   48 1
    30   16   49 1
    31   17   18 am
    32   17   20 am
    33   18   19 2
    34   20   21 2
    35   20   22 1
    36   22   23 1
    37   22   29 1
    38   22   50 1
    39   23   28 ar
    40   23   24 ar
    41   24   25 ar
    42   24   51 1
    43   25   26 ar
    44   25   52 1
    45   26   27 ar
    46   26   53 1
    47   27   28 ar
    48   27   54 1
    49   28   55 1
    50   29   34 ar
    51   29   30 ar
    52   30   31 ar
    53   30   56 1
    54   31   32 ar
    55   31   57 1
    56   32   33 ar
    57   32   58 1
    58   33   34 ar
    59   33   59 1
    60   34   60 1
    61   35   40 ar
    62   35   36 ar
    63   36   37 ar
    64   36   61 1
    65   37   38 ar
    66   37   62 1
    67   38   39 ar
    68   38   63 1
    69   39   40 ar
    70   39   64 1
    71   40   65 1
@<TRIPOS>MOLECULE
ZINC28061244
   50    54     0     0     0
SMALL
USER_CHARGES
4-(4-bromophenyl)-2-[(5S)-3-(4-fluorophenyl)-5-(p-tolyl)-4,5-dihydropyrazol-1-yl]thiazole
@<TRIPOS>ATOM
      1 C1         -2.4364   10.6885    4.8281 C.3       1 <0>        -0.1218
      2 C2         -2.0046    9.9586    3.5824 C.ar      1 <0>        -0.0702
      3 C3         -2.6223   10.2265    2.3751 C.ar      1 <0>        -0.1174
      4 C4         -2.2262    9.5570    1.2324 C.ar      1 <0>        -0.0931
      5 C5         -1.2117    8.6203    1.2968 C.ar      1 <0>        -0.1280
      6 C6         -0.5972    8.3489    2.5050 C.ar      1 <0>        -0.0895
      7 C7         -0.9904    9.0216    3.6468 C.ar      1 <0>        -0.1179
      8 C8         -0.7799    7.8905    0.0511 C.3       1 <0>         0.1585
      9 H1         -1.1179    8.5078   -0.7943 H         1 <0>         0.1076
     10 C9         -1.3204    6.4468    0.0427 C.3       1 <0>        -0.1191
     11 C10        -0.0738    5.5911    0.0323 C.2       1 <0>         0.1289
     12 N1          0.9685    6.3491    0.0255 N.2       1 <0>        -0.2036
     13 N2          0.6808    7.7125    0.0353 N.pl3     1 <0>        -0.4122
     14 C11         1.6165    8.7331    0.0302 C.2       1 <0>         0.4068
     15 N3          2.9355    8.6580    0.0161 N.2       1 <0>        -0.5409
     16 C12         3.6857    9.7497    0.0126 C.2       1 <0>         0.1327
     17 C13         3.0843   10.9772    0.0238 C.2       1 <0>        -0.2312
     18 S1          1.3606   10.5021    0.0331 S.3       1 <0>         0.0348
     19 C14         5.1648    9.6412   -0.0039 C.ar      1 <0>        -0.0082
     20 C15         5.9505   10.7926   -0.0138 C.ar      1 <0>        -0.0983
     21 C16         7.3263   10.6860   -0.0233 C.ar      1 <0>        -0.0914
     22 C17         7.9262    9.4386   -0.0345 C.ar      1 <0>        -0.0860
     23 C18         7.1506    8.2922   -0.0305 C.ar      1 <0>        -0.0934
     24 C19         5.7741    8.3875   -0.0152 C.ar      1 <0>        -0.0776
     25 Br1         9.8120    9.3003   -0.0548 Br        1 <0>        -0.0495
     26 C20        -0.0538    4.1169    0.0247 C.ar      1 <0>        -0.0416
     27 C21         1.1639    3.4320    0.0094 C.ar      1 <0>        -0.0505
     28 C22         1.1762    2.0533    0.0019 C.ar      1 <0>        -0.1545
     29 C23        -0.0162    1.3468    0.0094 C.ar      1 <0>         0.1173
     30 C24        -1.2274    2.0206    0.0189 C.ar      1 <0>        -0.1545
     31 C25        -1.2525    3.3991    0.0323 C.ar      1 <0>        -0.0595
     32 F1          0.0021   -0.0041    0.0020 F         1 <0>        -0.1342
     33 H2         -3.2485   11.3878    4.5804 H         1 <0>         0.0682
     34 H3         -1.5834   11.2481    5.2395 H         1 <0>         0.0726
     35 H4         -2.7925    9.9623    5.5737 H         1 <0>         0.0727
     36 H5         -3.4147   10.9587    2.3247 H         1 <0>         0.1271
     37 H6         -2.7091    9.7661    0.2893 H         1 <0>         0.1263
     38 H7          0.1924    7.6139    2.5561 H         1 <0>         0.1162
     39 H8         -0.5075    8.8125    4.5900 H         1 <0>         0.1236
     40 H9         -1.9315    6.2788    0.9418 H         1 <0>         0.1151
     41 H10        -1.9377    6.2916   -0.8544 H         1 <0>         0.1153
     42 H11         3.5278   11.9619    0.0226 H         1 <0>         0.2006
     43 H12         5.4833   11.7663   -0.0099 H         1 <0>         0.1347
     44 H13         7.9360   11.5775   -0.0265 H         1 <0>         0.1368
     45 H14         7.6236    7.3213   -0.0389 H         1 <0>         0.1353
     46 H15         5.1698    7.4924   -0.0117 H         1 <0>         0.1427
     47 H16         2.0937    3.9815    0.0031 H         1 <0>         0.1439
     48 H17         2.1168    1.5228   -0.0103 H         1 <0>         0.1426
     49 H18        -2.1534    1.4647    0.0199 H         1 <0>         0.1434
     50 H19        -2.1968    3.9231    0.0441 H         1 <0>         0.1402
@<TRIPOS>BOND
     1    1    2 1
     2    1   33 1
     3    1   34 1
     4    1   35 1
     5    2    7 ar
     6    2    3 ar
     7    3    4 ar
     8    3   36 1
     9    4    5 ar
    10    4   37 1
    11    5    6 ar
    12    5    8 1
    13    6    7 ar
    14    6   38 1
    15    7   39 1
    16    8    9 1
    17    8   13 1
    18    8   10 1
    19   10   11 1
    20   10   40 1
    21   10   41 1
    22   11   12 2
    23   11   26 1
    24   12   13 1
    25   13   14 1
    26   14   18 1
    27   14   15 2
    28   15   16 1
    29   16   17 2
    30   16   19 1
    31   17   18 1
    32   17   42 1
    33   19   24 ar
    34   19   20 ar
    35   20   21 ar
    36   20   43 1
    37   21   22 ar
    38   21   44 1
    39   22   23 ar
    40   22   25 1
    41   23   24 ar
    42   23   45 1
    43   24   46 1
    44   26   31 ar
    45   26   27 ar
    46   27   28 ar
    47   27   47 1
    48   28   29 ar
    49   28   48 1
    50   29   30 ar
    51   29   32 1
    52   30   31 ar
    53   30   49 1
    54   31   50 1
@<TRIPOS>MOLECULE
ZINC39885020
   40    43     0     0     0
SMALL
USER_CHARGES

@<TRIPOS>ATOM
      1 C1         -0.0168    1.3896    0.0097 C.ar      1 <0>        -0.0789
      2 C2          1.1701    2.0933    0.0021 C.ar      1 <0>        -0.0916
      3 C3          2.3781    1.4176   -0.0130 C.ar      1 <0>        -0.0843
      4 C4          2.4024    0.0337   -0.0207 C.ar      1 <0>        -0.0900
      5 C5          1.2211   -0.6796   -0.0133 C.ar      1 <0>        -0.0982
      6 C6          0.0021   -0.0041    0.0020 C.ar      1 <0>        -0.0131
      7 C7         -1.2709   -0.7657    0.0106 C.2       1 <0>         0.1002
      8 C8         -1.2564   -2.1363    0.0082 C.2       1 <0>        -0.1842
      9 S1         -3.0098   -2.4871    0.0211 S.3       1 <0>         0.0573
     10 C9         -3.5761   -0.7916    0.0282 C.2       1 <0>         0.1532
     11 N1         -2.4273   -0.1295    0.0260 N.2       1 <0>        -0.4820
     12 C10        -4.9531   -0.2689    0.0388 C.2       1 <0>         0.0219
     13 C11        -6.0242   -1.1429    0.0453 C.2       1 <0>         0.0387
     14 C12        -7.3408   -0.6432    0.0555 C.2       1 <0>        -0.0260
     15 C13        -8.4981   -1.4038    0.0683 C.2       1 <0>        -0.1260
     16 C14        -9.5696   -0.5084    0.0750 C.2       1 <0>        -0.1855
     17 C15        -9.0345    0.7605    0.0662 C.2       1 <0>         0.0620
     18 O1         -7.6928    0.6600    0.0604 O.3       1 <0>        -0.1397
     19 C16        -9.8036    2.0192    0.0690 C.ar      1 <0>        -0.0230
     20 C17       -10.8445    2.2080   -0.8443 C.ar      1 <0>        -0.0625
     21 C18       -11.5593    3.3867   -0.8364 C.ar      1 <0>        -0.1056
     22 C19       -11.2484    4.3836    0.0742 C.ar      1 <0>        -0.0102
     23 C20       -10.2184    4.2045    0.9819 C.ar      1 <0>        -0.1033
     24 C21        -9.4983    3.0268    0.9894 C.ar      1 <0>        -0.0007
     25 Cl1        -8.2121    2.8003    2.1331 Cl        1 <0>        -0.0329
     26 Cl2       -12.1543    5.8646    0.0765 Cl        1 <0>        -0.0458
     27 C22        -5.1824    1.1446    0.0425 C.1       1 <0>         0.2481
     28 N2         -5.3643    2.2659    0.0454 N.1       1 <0>        -0.3715
     29 Br1         4.0007    2.3885   -0.0239 Br        1 <0>        -0.0464
     30 H1         -0.9587    1.9177    0.0260 H         1 <0>         0.1411
     31 H2          1.1566    3.1732    0.0077 H         1 <0>         0.1366
     32 H3          3.3475   -0.4888   -0.0329 H         1 <0>         0.1383
     33 H4          1.2411   -1.7594   -0.0196 H         1 <0>         0.1353
     34 H5         -0.4177   -2.8166    0.0004 H         1 <0>         0.2067
     35 H6         -5.8513   -2.2090    0.0425 H         1 <0>         0.1762
     36 H7         -8.5599   -2.4820    0.0720 H         1 <0>         0.1689
     37 H8        -10.6192   -0.7628    0.0849 H         1 <0>         0.1638
     38 H9        -11.0881    1.4321   -1.5550 H         1 <0>         0.1513
     39 H10       -12.3636    3.5335   -1.5421 H         1 <0>         0.1502
     40 H11        -9.9808    4.9859    1.6885 H         1 <0>         0.1516
@<TRIPOS>BOND
     1    1    6 ar
     2    1    2 ar
     3    1   30 1
     4    2    3 ar
     5    2   31 1
     6    3    4 ar
     7    3   29 1
     8    4    5 ar
     9    4   32 1
    10    5    6 ar
    11    5   33 1
    12    6    7 1
    13    7   11 1
    14    7    8 2
    15    8    9 1
    16    8   34 1
    17    9   10 1
    18   10   11 2
    19   10   12 1
    20   12   13 2
    21   12   27 1
    22   13   14 1
    23   13   35 1
    24   14   18 1
    25   14   15 2
    26   15   16 1
    27   15   36 1
    28   16   17 2
    29   16   37 1
    30   17   18 1
    31   17   19 1
    32   19   24 ar
    33   19   20 ar
    34   20   21 ar
    35   20   38 1
    36   21   22 ar
    37   21   39 1
    38   22   23 ar
    39   22   26 1
    40   23   24 ar
    41   23   40 1
    42   24   25 1
    43   27   28 3
@<TRIPOS>MOLECULE
ZINC59125924
   59    64     0     0     0
SMALL
USER_CHARGES

@<TRIPOS>ATOM
      1 C1          0.3841    2.2466   -0.2943 C.3       1 <0>        -0.1469
      2 C2          0.3074    0.7209   -0.2087 C.3       1 <0>        -0.0888
      3 C3          0.9690    0.1160   -1.4201 C.ar      1 <0>        -0.0691
      4 C4          0.2274   -0.1362   -2.5591 C.ar      1 <0>        -0.1180
      5 C5          0.8342   -0.6911   -3.6702 C.ar      1 <0>        -0.0969
      6 C6          2.1828   -0.9933   -3.6426 C.ar      1 <0>        -0.0836
      7 C7          2.9247   -0.7403   -2.5040 C.ar      1 <0>        -0.0829
      8 C8          2.3187   -0.1814   -1.3943 C.ar      1 <0>        -0.1167
      9 C9          2.8442   -1.5992   -4.8536 C.3       1 <0>         0.0396
     10 H1          2.1223   -1.7457   -5.6571 H         1 <0>         0.1231
     11 C10         4.0200   -0.7372   -5.3242 C.ar      1 <0>        -0.0611
     12 C11         3.9611    0.6499   -5.4745 C.ar      1 <0>        -0.0953
     13 C12         5.0482    1.3735   -5.9050 C.ar      1 <0>        -0.0917
     14 C13         6.2286    0.7157   -6.1976 C.ar      1 <0>        -0.1101
     15 C14         6.2976   -0.6492   -6.0519 C.ar      1 <0>        -0.0732
     16 C15         5.1996   -1.3960   -5.6123 C.ar      1 <0>        -0.1092
     17 C16         5.1845   -2.8888   -5.4121 C.3       1 <0>         0.2479
     18 S1          3.6819   -3.1831   -4.4236 S.3       1 <0>        -0.1886
     19 N1          5.2257   -3.6755   -6.6335 N.pl3     1 <0>        -0.4146
     20 N2          6.2985   -4.5487   -6.7204 N.2       1 <0>        -0.1788
     21 C17         7.2033   -4.6570   -5.7785 C.2       1 <0>         0.0237
     22 S2          6.6709   -3.4826   -4.5374 S.3       1 <0>        -0.0511
     23 C18         8.3774   -5.5351   -5.7485 C.2       1 <0>         0.4988
     24 O1          9.1276   -5.5158   -4.7900 O.2       1 <0>        -0.4209
     25 C19         8.6499   -6.4437   -6.8821 C.ar      1 <0>        -0.1617
     26 C20         7.7945   -6.4643   -7.9858 C.ar      1 <0>        -0.0685
     27 C21         8.0550   -7.3143   -9.0404 C.ar      1 <0>        -0.1342
     28 C22         9.1607   -8.1457   -9.0062 C.ar      1 <0>        -0.0791
     29 C23        10.0122   -8.1308   -7.9155 C.ar      1 <0>        -0.1353
     30 C24         9.7671   -7.2813   -6.8568 C.ar      1 <0>        -0.0524
     31 C25         4.2634   -3.5617   -7.6362 C.ar      1 <0>         0.1759
     32 C26         3.9178   -2.3096   -8.1315 C.ar      1 <0>        -0.1296
     33 C27         2.9648   -2.2010   -9.1247 C.ar      1 <0>        -0.1007
     34 C28         2.3539   -3.3359   -9.6264 C.ar      1 <0>        -0.1178
     35 C29         2.6950   -4.5834   -9.1362 C.ar      1 <0>        -0.1012
     36 C30         3.6512   -4.7005   -8.1471 C.ar      1 <0>        -0.1070
     37 H2          1.4285    2.5565   -0.3306 H         1 <0>         0.0560
     38 H3         -0.1272    2.5862   -1.1951 H         1 <0>         0.0558
     39 H4         -0.0945    2.6841    0.5819 H         1 <0>         0.0594
     40 H5          0.8187    0.3814    0.6921 H         1 <0>         0.0734
     41 H6         -0.7370    0.4111   -0.1724 H         1 <0>         0.0733
     42 H7         -0.8263    0.0999   -2.5806 H         1 <0>         0.1252
     43 H8          0.2546   -0.8888   -4.5598 H         1 <0>         0.1242
     44 H9          3.9783   -0.9767   -2.4823 H         1 <0>         0.1237
     45 H10         2.8991    0.0198   -0.5060 H         1 <0>         0.1246
     46 H11         3.0404    1.1664   -5.2469 H         1 <0>         0.1300
     47 H12         4.9805    2.4459   -6.0140 H         1 <0>         0.1364
     48 H13         7.0902    1.2704   -6.5385 H         1 <0>         0.1365
     49 H14         7.2223   -1.1575   -6.2822 H         1 <0>         0.1252
     50 H15         6.9309   -5.8164   -8.0135 H         1 <0>         0.1552
     51 H16         7.3944   -7.3312   -9.8946 H         1 <0>         0.1304
     52 H17         9.3599   -8.8096   -9.8345 H         1 <0>         0.1295
     53 H18        10.8732   -8.7826   -7.8951 H         1 <0>         0.1328
     54 H19        10.4349   -7.2675   -6.0081 H         1 <0>         0.1370
     55 H20         4.3939   -1.4229   -7.7397 H         1 <0>         0.1287
     56 H21         2.6958   -1.2285   -9.5100 H         1 <0>         0.1298
     57 H22         1.6083   -3.2477  -10.4028 H         1 <0>         0.1286
     58 H23         2.2155   -5.4672   -9.5302 H         1 <0>         0.1315
     59 H24         3.9200   -5.6753   -7.7676 H         1 <0>         0.1287
@<TRIPOS>BOND
     1    1    2 1
     2    1   37 1
     3    1   38 1
     4    1   39 1
     5    2    3 1
     6    2   40 1
     7    2   41 1
     8    3    8 ar
     9    3    4 ar
    10    4    5 ar
    11    4   42 1
    12    5    6 ar
    13    5   43 1
    14    6    7 ar
    15    6    9 1
    16    7    8 ar
    17    7   44 1
    18    8   45 1
    19    9   10 1
    20    9   18 1
    21    9   11 1
    22   11   16 ar
    23   11   12 ar
    24   12   13 ar
    25   12   46 1
    26   13   14 ar
    27   13   47 1
    28   14   15 ar
    29   14   48 1
    30   15   16 ar
    31   15   49 1
    32   16   17 1
    33   17   22 1
    34   17   18 1
    35   17   19 1
    36   19   20 1
    37   19   31 1
    38   20   21 2
    39   21   22 1
    40   21   23 1
    41   23   24 2
    42   23   25 1
    43   25   30 ar
    44   25   26 ar
    45   26   27 ar
    46   26   50 1
    47   27   28 ar
    48   27   51 1
    49   28   29 ar
    50   28   52 1
    51   29   30 ar
    52   29   53 1
    53   30   54 1
    54   31   36 ar
    55   31   32 ar
    56   32   33 ar
    57   32   55 1
    58   33   34 ar
    59   33   56 1
    60   34   35 ar
    61   34   57 1
    62   35   36 ar
    63   35   58 1
    64   36   59 1
@<TRIPOS>MOLECULE
ZINC13254842
   46    49     0     0     0
SMALL
USER_CHARGES
3-[[5-(4-chlorophenyl)-4-propyl-1,2,4-triazol-3-yl]sulfanylmethyl]-4-fluoro-benzothiophene-2-carboxylic acid
@<TRIPOS>ATOM
      1 C1          6.7678    2.6757   -6.0550 C.3       1 <0>        -0.1492
      2 C2          7.0031    2.8375   -4.5519 C.3       1 <0>        -0.1471
      3 C3          6.4791    1.6016   -3.8177 C.3       1 <0>         0.0935
      4 N1          6.7044    1.7566   -2.3785 N.pl3     1 <0>        -0.4589
      5 C4          7.7834    1.3071   -1.6528 C.2       1 <0>         0.1970
      6 N2          7.5789    1.6541   -0.4034 N.2       1 <0>        -0.2599
      7 N3          6.4642    2.2852   -0.3002 N.2       1 <0>        -0.2861
      8 C5          5.8884    2.3799   -1.4779 C.2       1 <0>         0.1865
      9 S1          4.3475    3.1592   -1.8283 S.3       1 <0>         0.0179
     10 C6          3.8943    3.7202   -0.1681 C.3       1 <0>        -0.0472
     11 C7          2.5695    4.4363   -0.2241 C.2       1 <0>        -0.1158
     12 C8          2.5281    5.8224   -0.4531 C.ar      1 <0>        -0.0974
     13 C9          3.6173    6.7130   -0.6543 C.ar      1 <0>         0.1358
     14 C10         3.3964    8.0496   -0.8598 C.ar      1 <0>        -0.1632
     15 C11         2.1114    8.5774   -0.8788 C.ar      1 <0>        -0.0831
     16 C12         1.0296    7.7425   -0.6871 C.ar      1 <0>        -0.0815
     17 C13         1.2345    6.3951   -0.4789 C.ar      1 <0>        -0.1195
     18 S2          0.1630    5.0077   -0.1979 S.3       1 <0>         0.1030
     19 C14         1.4120    3.7411   -0.0572 C.2       1 <0>        -0.0826
     20 C15         1.2346    2.3045    0.1853 C.2       1 <0>         0.5208
     21 O1          2.2050    1.5752    0.2538 O.co2     1 <0>        -0.5862
     22 F1          4.8817    6.2374   -0.6432 F         1 <0>        -0.1298
     23 C16         8.9501    0.5678   -2.1796 C.ar      1 <0>         0.0059
     24 C17         9.7640   -0.1654   -1.3145 C.ar      1 <0>        -0.0660
     25 C18        10.8489   -0.8564   -1.8125 C.ar      1 <0>        -0.1047
     26 C19        11.1368   -0.8162   -3.1665 C.ar      1 <0>        -0.0294
     27 C20        10.3358   -0.0866   -4.0289 C.ar      1 <0>        -0.1050
     28 C21         9.2456    0.6048   -3.5433 C.ar      1 <0>        -0.1124
     29 Cl1        12.5076   -1.6834   -3.7850 Cl        1 <0>        -0.0688
     30 H1          5.7004    2.5651   -6.2459 H         1 <0>         0.0634
     31 H2          7.1412    3.5561   -6.5781 H         1 <0>         0.0652
     32 H3          7.2944    1.7906   -6.4120 H         1 <0>         0.0583
     33 H4          6.4765    3.7226   -4.1949 H         1 <0>         0.0807
     34 H5          8.0705    2.9481   -4.3610 H         1 <0>         0.0726
     35 H6          7.0056    0.7165   -4.1747 H         1 <0>         0.1040
     36 H7          5.4117    1.4910   -4.0086 H         1 <0>         0.1037
     37 H8          4.6592    4.4000    0.2071 H         1 <0>         0.1017
     38 H9          3.8146    2.8602    0.4968 H         1 <0>         0.1354
     39 H10         4.2398    8.7071   -1.0108 H         1 <0>         0.1348
     40 H11         1.9602    9.6341   -1.0429 H         1 <0>         0.1387
     41 H12         0.0267    8.1430   -0.6996 H         1 <0>         0.1347
     42 H13         9.5426   -0.1944   -0.2578 H         1 <0>         0.1474
     43 H14        11.4774   -1.4268   -1.1447 H         1 <0>         0.1412
     44 H15        10.5655   -0.0587   -5.0839 H         1 <0>         0.1388
     45 H16         8.6221    1.1741   -4.2168 H         1 <0>         0.1422
     46 O2         -0.0046    1.7934    0.3322 O.co2     1 <0>        -0.7293
@<TRIPOS>BOND
     1    1    2 1
     2    1   30 1
     3    1   31 1
     4    1   32 1
     5    2    3 1
     6    2   33 1
     7    2   34 1
     8    3    4 1
     9    3   35 1
    10    3   36 1
    11    4    8 1
    12    4    5 1
    13    5    6 2
    14    5   23 1
    15    6    7 1
    16    7    8 2
    17    8    9 1
    18    9   10 1
    19   10   11 1
    20   10   37 1
    21   10   38 1
    22   11   19 2
    23   11   12 1
    24   12   17 ar
    25   12   13 ar
    26   13   14 ar
    27   13   22 1
    28   14   15 ar
    29   14   39 1
    30   15   16 ar
    31   15   40 1
    32   16   17 ar
    33   16   41 1
    34   17   18 1
    35   18   19 1
    36   19   20 1
    37   20   21 2
    38   20   46 1
    39   23   28 ar
    40   23   24 ar
    41   24   25 ar
    42   24   42 1
    43   25   26 ar
    44   25   43 1
    45   26   27 ar
    46   26   29 1
    47   27   28 ar
    48   27   44 1
    49   28   45 1
@<TRIPOS>MOLECULE
ZINC34923974
   59    62     0     0     0
SMALL
USER_CHARGES

@<TRIPOS>ATOM
      1 C1          0.2388   -3.2201    3.2952 C.3       1 <0>        -0.1490
      2 C2         -0.0292   -2.3036    2.0998 C.3       1 <0>         0.0572
      3 O1         -1.1233   -2.8202    1.3394 O.3       1 <0>        -0.3501
      4 C3         -1.4269   -2.1802    0.1885 C.2       1 <0>         0.5646
      5 O2         -0.7220   -1.2672   -0.2054 O.2       1 <0>        -0.5083
      6 C4         -2.5513   -2.5659   -0.5514 C.2       1 <0>        -0.3736
      7 C5         -2.5187   -3.6767   -1.3725 C.2       1 <0>         0.2523
      8 N1         -3.5887   -4.0291   -2.0663 N.2       1 <0>        -0.5906
      9 C6         -4.7404   -3.3902   -2.0478 C.2       1 <0>         0.3247
     10 N2         -4.9793   -2.2701   -1.3019 N.pl3     1 <0>        -0.5224
     11 C7         -3.8436   -1.7842   -0.4736 C.3       1 <0>         0.2760
     12 H1         -3.6326   -0.7566   -0.7697 H         1 <0>         0.0769
     13 C8         -4.2881   -1.7648    0.9662 C.ar      1 <0>        -0.1128
     14 C9         -5.1692   -2.7230    1.4308 C.ar      1 <0>        -0.0532
     15 C10        -5.5770   -2.7055    2.7513 C.ar      1 <0>        -0.1236
     16 C11        -5.1042   -1.7295    3.6091 C.ar      1 <0>        -0.0934
     17 C12        -4.2230   -0.7708    3.1471 C.ar      1 <0>        -0.1548
     18 C13        -3.8096   -0.7905    1.8255 C.ar      1 <0>         0.1029
     19 F1         -2.9444    0.1436    1.3738 F         1 <0>        -0.1382
     20 C14        -6.2407   -1.7154   -1.3900 C.2       1 <0>         0.2313
     21 C15        -7.1358   -2.3197   -2.2025 C.2       1 <0>        -0.2962
     22 S1         -6.1869   -3.6830   -2.8470 S.3       1 <0>         0.1317
     23 C16        -6.5974   -0.5109   -0.6271 C.2       1 <0>        -0.4531
     24 C17        -7.8704   -0.0709   -0.6195 C.2       1 <0>         0.4908
     25 O3         -8.8468   -0.8109   -1.1998 O.3       1 <0>        -0.6834
     26 N3         -8.1819    1.1378   -0.0187 N.pl3     1 <0>        -0.6904
     27 C18        -9.5166    1.5305    0.1100 C.ar      1 <0>         0.1949
     28 C19       -10.5058    0.5775    0.3201 C.ar      1 <0>        -0.1220
     29 C20       -11.8237    0.9692    0.4473 C.ar      1 <0>        -0.0992
     30 C21       -12.1598    2.3084    0.3657 C.ar      1 <0>        -0.1340
     31 C22       -11.1781    3.2594    0.1563 C.ar      1 <0>        -0.0715
     32 C23        -9.8571    2.8752    0.0339 C.ar      1 <0>        -0.1735
     33 C24       -11.5492    4.7172    0.0672 C.3       1 <0>        -0.1111
     34 C25       -13.5993    2.7320    0.5050 C.3       1 <0>        -0.1058
     35 C26        -1.2558   -4.4920   -1.4790 C.3       1 <0>        -0.1026
     36 H2          1.1272   -2.8760    3.8248 H         1 <0>         0.0739
     37 H3         -0.6175   -3.1978    3.9693 H         1 <0>         0.0640
     38 H4          0.3977   -4.2394    2.9431 H         1 <0>         0.0652
     39 H5         -0.2750   -1.3034    2.4567 H         1 <0>         0.0613
     40 H6          0.8601   -2.2567    1.4713 H         1 <0>         0.0634
     41 H7         -5.5394   -3.4856    0.7616 H         1 <0>         0.1188
     42 H8         -6.2658   -3.4544    3.1134 H         1 <0>         0.1259
     43 H9         -5.4241   -1.7164    4.6406 H         1 <0>         0.1282
     44 H10        -3.8540   -0.0084    3.8172 H         1 <0>         0.1303
     45 H11        -8.1605   -2.0471   -2.4075 H         1 <0>         0.2330
     46 H12        -5.8387    0.0214   -0.0726 H         1 <0>         0.0832
     47 H13        -7.4735    1.7115    0.3127 H         1 <0>         0.3956
     48 H14       -10.2441   -0.4684    0.3835 H         1 <0>         0.1388
     49 H15       -12.5930    0.2289    0.6102 H         1 <0>         0.1143
     50 H16        -9.0902    3.6189   -0.1249 H         1 <0>         0.1134
     51 H17       -11.5131    5.1628    1.0613 H         1 <0>         0.0639
     52 H18       -10.8458    5.2319   -0.5874 H         1 <0>         0.0598
     53 H19       -12.5572    4.8115   -0.3368 H         1 <0>         0.0661
     54 H20       -13.8206    2.9276    1.5542 H         1 <0>         0.0597
     55 H21       -13.7694    3.6377   -0.0771 H         1 <0>         0.0622
     56 H22       -14.2490    1.9372    0.1386 H         1 <0>         0.0581
     57 H23        -1.2994   -5.3231   -0.7751 H         1 <0>         0.0835
     58 H24        -1.1578   -4.8794   -2.4931 H         1 <0>         0.0814
     59 H25        -0.3966   -3.8631   -1.2457 H         1 <0>         0.0656
@<TRIPOS>BOND
     1    1    2 1
     2    1   36 1
     3    1   37 1
     4    1   38 1
     5    2    3 1
     6    2   39 1
     7    2   40 1
     8    3    4 1
     9    4    5 2
    10    4    6 1
    11    6   11 1
    12    6    7 2
    13    7    8 1
    14    7   35 1
    15    8    9 2
    16    9   22 1
    17    9   10 1
    18   10   11 1
    19   10   20 1
    20   11   12 1
    21   11   13 1
    22   13   18 ar
    23   13   14 ar
    24   14   15 ar
    25   14   41 1
    26   15   16 ar
    27   15   42 1
    28   16   17 ar
    29   16   43 1
    30   17   18 ar
    31   17   44 1
    32   18   19 1
    33   20   21 2
    34   20   23 1
    35   21   22 1
    36   21   45 1
    37   23   24 2
    38   23   46 1
    39   24   25 1
    40   24   26 1
    41   26   27 1
    42   26   47 1
    43   27   32 ar
    44   27   28 ar
    45   28   29 ar
    46   28   48 1
    47   29   30 ar
    48   29   49 1
    49   30   31 ar
    50   30   34 1
    51   31   32 ar
    52   31   33 1
    53   32   50 1
    54   33   51 1
    55   33   52 1
    56   33   53 1
    57   34   54 1
    58   34   55 1
    59   34   56 1
    60   35   57 1
    61   35   58 1
    62   35   59 1
@<TRIPOS>MOLECULE
ZINC36058866
   65    68     0     0     0
SMALL
USER_CHARGES

@<TRIPOS>ATOM
      1 C1          1.0031    1.4090    0.1670 C.3       1 <0>        -0.1191
      2 C2          0.5144   -0.0149    0.0968 C.ar      1 <0>        -0.0386
      3 C3          0.4159   -0.6524   -1.1260 C.ar      1 <0>        -0.1260
      4 C4         -0.0322   -1.9582   -1.1904 C.ar      1 <0>        -0.1171
      5 C5         -0.3815   -2.6272   -0.0320 C.ar      1 <0>        -0.1289
      6 C6         -0.2822   -1.9901    1.1906 C.ar      1 <0>        -0.0892
      7 C7          0.1702   -0.6853    1.2554 C.ar      1 <0>        -0.0673
      8 C8          0.2835    0.0076    2.5889 C.3       1 <0>         0.2559
      9 H1          0.8125    0.9475    2.4313 H         1 <0>         0.0770
     10 C9         -1.1146    0.3342    3.0642 C.2       1 <0>        -0.3938
     11 C10        -1.5166   -0.1774    4.2831 C.2       1 <0>         0.3022
     12 N1         -0.6945   -0.9263    4.9999 N.2       1 <0>        -0.5977
     13 C11         0.5325   -1.2473    4.6444 C.2       1 <0>         0.3200
     14 N2          1.1181   -0.8440    3.4778 N.pl3     1 <0>        -0.5119
     15 C12         2.4131   -1.2647    3.2493 C.2       1 <0>         0.2309
     16 C13         2.9963   -2.0386    4.1911 C.2       1 <0>        -0.3057
     17 S1          1.7055   -2.1724    5.4094 S.3       1 <0>         0.1393
     18 C14         3.1319   -0.8848    2.0246 C.2       1 <0>        -0.4674
     19 C15         4.3560   -1.3896    1.7781 C.2       1 <0>         0.5030
     20 O1          4.8890   -2.3135    2.6142 O.3       1 <0>        -0.7002
     21 N3          5.0700   -0.9645    0.6705 N.pl3     1 <0>        -0.6293
     22 C16         4.5235    0.0833   -0.1954 C.3       1 <0>         0.1000
     23 C17         6.3719   -1.5625    0.3645 C.3       1 <0>         0.1678
     24 C18         6.1901   -2.6802   -0.6299 C.ar      1 <0>        -0.0904
     25 C19         5.8539   -3.9474   -0.1915 C.ar      1 <0>        -0.0888
     26 C20         5.6871   -4.9726   -1.1036 C.ar      1 <0>        -0.1261
     27 C21         5.8560   -4.7306   -2.4541 C.ar      1 <0>        -0.1285
     28 C22         6.1913   -3.4632   -2.8925 C.ar      1 <0>        -0.1304
     29 C23         6.3539   -2.4370   -1.9808 C.ar      1 <0>        -0.1161
     30 C24        -2.9006    0.1200    4.7999 C.3       1 <0>        -0.1169
     31 C25        -1.9729    1.1289    2.2948 C.2       1 <0>         0.5368
     32 O2         -3.0648    1.4474    2.7328 O.2       1 <0>        -0.5494
     33 O3         -1.5907    1.5430    1.0664 O.3       1 <0>        -0.3407
     34 C26        -2.4678    2.4399    0.3821 C.3       1 <0>         0.0852
     35 C27        -1.6667    3.2672   -0.6252 C.3       1 <0>        -0.1479
     36 C28        -3.5423    1.6388   -0.3557 C.3       1 <0>        -0.1682
     37 H2          2.0731    1.4161    0.3747 H         1 <0>         0.0661
     38 H3          0.8144    1.9052   -0.7850 H         1 <0>         0.0602
     39 H4          0.4751    1.9355    0.9621 H         1 <0>         0.0784
     40 H5          0.6888   -0.1299   -2.0310 H         1 <0>         0.1133
     41 H6         -0.1099   -2.4560   -2.1457 H         1 <0>         0.1119
     42 H7         -0.7324   -3.6473   -0.0823 H         1 <0>         0.1114
     43 H8         -0.5554   -2.5126    2.0955 H         1 <0>         0.1015
     44 H9          3.9885   -2.4650    4.2022 H         1 <0>         0.2353
     45 H10         2.6783   -0.2009    1.3224 H         1 <0>         0.1002
     46 H11         4.8515    1.0589    0.1633 H         1 <0>         0.0340
     47 H12         4.8778   -0.0667   -1.2153 H         1 <0>         0.0472
     48 H13         3.4346    0.0373   -0.1786 H         1 <0>         0.0697
     49 H14         7.0300   -0.8034   -0.0584 H         1 <0>         0.0592
     50 H15         6.8140   -1.9580    1.2789 H         1 <0>         0.0908
     51 H16         5.7218   -4.1364    0.8636 H         1 <0>         0.1325
     52 H17         5.4251   -5.9628   -0.7611 H         1 <0>         0.1159
     53 H18         5.7264   -5.5318   -3.1666 H         1 <0>         0.1136
     54 H19         6.3237   -3.2742   -3.9476 H         1 <0>         0.1140
     55 H20         6.6123   -1.4459   -2.3236 H         1 <0>         0.1138
     56 H21        -3.6086   -0.5893    4.3714 H         1 <0>         0.0774
     57 H22        -2.9097    0.0312    5.8862 H         1 <0>         0.0638
     58 H23        -3.1845    1.1333    4.5158 H         1 <0>         0.1138
     59 H24        -2.9420    3.1055    1.1035 H         1 <0>         0.0723
     60 H25        -1.1217    2.5993   -1.2922 H         1 <0>         0.0674
     61 H26        -2.3471    3.8876   -1.2086 H         1 <0>         0.0689
     62 H27        -0.9606    3.9042   -0.0924 H         1 <0>         0.0607
     63 H28        -3.0682    0.9733   -1.0771 H         1 <0>         0.0605
     64 H29        -4.1131    1.0494    0.3619 H         1 <0>         0.0615
     65 H30        -4.2113    2.3230   -0.8777 H         1 <0>         0.0624
@<TRIPOS>BOND
     1    1    2 1
     2    1   37 1
     3    1   38 1
     4    1   39 1
     5    2    7 ar
     6    2    3 ar
     7    3    4 ar
     8    3   40 1
     9    4    5 ar
    10    4   41 1
    11    5    6 ar
    12    5   42 1
    13    6    7 ar
    14    6   43 1
    15    7    8 1
    16    8    9 1
    17    8   14 1
    18    8   10 1
    19   10   11 2
    20   10   31 1
    21   11   12 1
    22   11   30 1
    23   12   13 2
    24   13   17 1
    25   13   14 1
    26   14   15 1
    27   15   16 2
    28   15   18 1
    29   16   17 1
    30   16   44 1
    31   18   19 2
    32   18   45 1
    33   19   20 1
    34   19   21 1
    35   21   22 1
    36   21   23 1
    37   22   46 1
    38   22   47 1
    39   22   48 1
    40   23   24 1
    41   23   49 1
    42   23   50 1
    43   24   29 ar
    44   24   25 ar
    45   25   26 ar
    46   25   51 1
    47   26   27 ar
    48   26   52 1
    49   27   28 ar
    50   27   53 1
    51   28   29 ar
    52   28   54 1
    53   29   55 1
    54   30   56 1
    55   30   57 1
    56   30   58 1
    57   31   32 2
    58   31   33 1
    59   33   34 1
    60   34   35 1
    61   34   36 1
    62   34   59 1
    63   35   60 1
    64   35   61 1
    65   35   62 1
    66   36   63 1
    67   36   64 1
    68   36   65 1
@<TRIPOS>MOLECULE
ZINC39887370
   58    62     0     0     0
SMALL
USER_CHARGES

@<TRIPOS>ATOM
      1 C1          1.0160   -0.3280    2.1036 C.3       1 <0>        -0.1540
      2 C2          0.6356   -0.9786    0.7721 C.3       1 <0>        -0.1237
      3 C3         -0.8122   -1.4688    0.8391 C.3       1 <0>        -0.1163
      4 C4         -1.1926   -2.1193   -0.4924 C.3       1 <0>        -0.0764
      5 C5         -2.6186   -2.6022   -0.4263 C.ar      1 <0>        -0.0852
      6 C6         -2.8937   -3.8819    0.0196 C.ar      1 <0>        -0.1131
      7 C7         -4.1994   -4.3274    0.0818 C.ar      1 <0>        -0.0732
      8 C8         -5.2369   -3.4884   -0.3041 C.ar      1 <0>         0.1493
      9 C9         -4.9572   -2.2035   -0.7515 C.ar      1 <0>        -0.1198
     10 C10        -3.6496   -1.7625   -0.8063 C.ar      1 <0>        -0.1162
     11 N1         -6.5601   -3.9364   -0.2428 N.pl3     1 <0>        -0.5710
     12 C11        -7.3361   -4.1418   -1.4703 C.3       1 <0>         0.4282
     13 H1         -6.8228   -3.6683   -2.3072 H         1 <0>         0.1155
     14 N2         -8.6672   -3.5513   -1.3186 N.am      1 <0>        -0.7446
     15 C12        -9.2585   -3.4936   -0.1087 C.2       1 <0>         0.5998
     16 O1        -10.3832   -3.0400    0.0022 O.2       1 <0>        -0.5626
     17 C13        -8.5406   -3.9798    1.0719 C.2       1 <0>        -0.3160
     18 C14        -7.1540   -4.1971    0.9672 C.2       1 <0>         0.4454
     19 S1         -6.2118   -4.7776    2.3383 S.3       1 <0>        -0.7787
     20 C15        -9.2321   -4.2321    2.3002 C.1       1 <0>         0.3349
     21 N3         -9.7807   -4.4323    3.2746 N.1       1 <0>        -0.4942
     22 C16        -7.4717   -5.6189   -1.7363 C.ar      1 <0>        -0.1383
     23 C17        -6.4615   -6.4826   -1.3066 C.ar      1 <0>        -0.0232
     24 C18        -6.5283   -7.8208   -1.5170 C.ar      1 <0>        -0.1231
     25 C19        -7.6464   -8.3662   -2.1884 C.ar      1 <0>         0.1340
     26 C20        -8.7095   -7.4533   -2.6401 C.ar      1 <0>        -0.2014
     27 C21        -8.5751   -6.0757   -2.3824 C.ar      1 <0>        -0.0198
     28 C22        -9.6733   -8.2440   -3.2612 C.2       1 <0>         0.1497
     29 O2         -9.2567   -9.5175   -3.2039 O.3       1 <0>        -0.0475
     30 N4         -8.0083   -9.5822   -2.5418 N.2       1 <0>        -0.3242
     31 C23       -10.9266   -7.7667   -3.8719 C.ar      1 <0>        -0.0392
     32 C24       -12.1332   -8.4186   -3.5998 C.ar      1 <0>        -0.0675
     33 C25       -13.3019   -7.9664   -4.1743 C.ar      1 <0>        -0.1091
     34 C26       -13.2827   -6.8688   -5.0193 C.ar      1 <0>        -0.0158
     35 C27       -12.0908   -6.2182   -5.2933 C.ar      1 <0>        -0.1081
     36 C28       -10.9154   -6.6563   -4.7215 C.ar      1 <0>        -0.0674
     37 Cl1       -14.7592   -6.3065   -5.7388 Cl        1 <0>        -0.0614
     38 H2          2.0475    0.0212    2.0558 H         1 <0>         0.0508
     39 H3          0.3550    0.5168    2.2972 H         1 <0>         0.0535
     40 H4          0.9166   -1.0586    2.9064 H         1 <0>         0.0543
     41 H5          0.7350   -0.2480   -0.0308 H         1 <0>         0.0591
     42 H6          1.2967   -1.8234    0.5785 H         1 <0>         0.0599
     43 H7         -0.9116   -2.1993    1.6420 H         1 <0>         0.0653
     44 H8         -1.4732   -0.6240    1.0327 H         1 <0>         0.0632
     45 H9         -1.0932   -1.3888   -1.2952 H         1 <0>         0.0677
     46 H10        -0.5315   -2.9641   -0.6860 H         1 <0>         0.0690
     47 H11        -2.0865   -4.5339    0.3191 H         1 <0>         0.1205
     48 H12        -4.4136   -5.3271    0.4297 H         1 <0>         0.1382
     49 H13        -5.7616   -1.5488   -1.0526 H         1 <0>         0.1203
     50 H14        -3.4316   -0.7622   -1.1501 H         1 <0>         0.1190
     51 H15        -9.1278   -3.1982   -2.0959 H         1 <0>         0.4020
     52 H16        -5.6038   -6.0737   -0.7933 H         1 <0>         0.1440
     53 H17        -5.7325   -8.4654   -1.1742 H         1 <0>         0.1397
     54 H18        -9.3433   -5.3861   -2.6998 H         1 <0>         0.1343
     55 H19       -12.1495   -9.2746   -2.9415 H         1 <0>         0.1426
     56 H20       -14.2346   -8.4692   -3.9653 H         1 <0>         0.1431
     57 H21       -12.0829   -5.3633   -5.9533 H         1 <0>         0.1447
     58 H22        -9.9875   -6.1457   -4.9326 H         1 <0>         0.1428
@<TRIPOS>BOND
     1    1    2 1
     2    1   38 1
     3    1   39 1
     4    1   40 1
     5    2    3 1
     6    2   41 1
     7    2   42 1
     8    3    4 1
     9    3   43 1
    10    3   44 1
    11    4    5 1
    12    4   45 1
    13    4   46 1
    14    5   10 ar
    15    5    6 ar
    16    6    7 ar
    17    6   47 1
    18    7    8 ar
    19    7   48 1
    20    8    9 ar
    21    8   11 1
    22    9   10 ar
    23    9   49 1
    24   10   50 1
    25   11   18 1
    26   11   12 1
    27   12   13 1
    28   12   14 1
    29   12   22 1
    30   14   15 am
    31   14   51 1
    32   15   16 2
    33   15   17 1
    34   17   18 2
    35   17   20 1
    36   18   19 1
    37   20   21 3
    38   22   27 ar
    39   22   23 ar
    40   23   24 ar
    41   23   52 1
    42   24   25 ar
    43   24   53 1
    44   25   30 2
    45   25   26 ar
    46   26   27 ar
    47   26   28 2
    48   27   54 1
    49   28   29 1
    50   28   31 1
    51   29   30 1
    52   31   36 ar
    53   31   32 ar
    54   32   33 ar
    55   32   55 1
    56   33   34 ar
    57   33   56 1
    58   34   35 ar
    59   34   37 1
    60   35   36 ar
    61   35   57 1
    62   36   58 1
@<TRIPOS>MOLECULE
ZINC59105501
   44    46     0     0     0
SMALL
USER_CHARGES

@<TRIPOS>ATOM
      1 C1         -0.0187    1.5258    0.0104 C.3       1 <0>        -0.1466
      2 C2          0.0021   -0.0041    0.0020 C.3       1 <0>        -0.0779
      3 C3          0.7074   -0.4901   -1.2379 C.ar      1 <0>        -0.1149
      4 C4         -0.0148   -0.7176   -2.3964 C.ar      1 <0>        -0.1017
      5 C5          0.6234   -1.1623   -3.5349 C.ar      1 <0>        -0.1192
      6 C6          2.0040   -1.3829   -3.5170 C.ar      1 <0>         0.1221
      7 C7          2.7269   -1.1504   -2.3429 C.ar      1 <0>        -0.1615
      8 C8          2.0751   -0.7012   -1.2138 C.ar      1 <0>        -0.0939
      9 N1          2.6429   -1.8236   -4.6399 N.2       1 <0>        -0.4849
     10 C9          3.7821   -1.2665   -5.0139 C.2       1 <0>         0.3219
     11 C10         4.6231   -1.5790   -6.1786 C.2       1 <0>        -0.4214
     12 C11         5.7688   -0.8340   -6.3278 C.2       1 <0>         0.3474
     13 O1          6.6025   -1.0526   -7.3712 O.3       1 <0>        -0.5751
     14 C12         6.0581    0.1616   -5.3739 C.2       1 <0>        -0.1098
     15 C13         7.1420    1.0157   -5.3319 C.2       1 <0>         0.0096
     16 C14         7.2591    1.9547   -4.2876 C.2       1 <0>        -0.1373
     17 C15         8.2585    2.9009   -4.0644 C.2       1 <0>        -0.1456
     18 C16         8.0955    3.6840   -2.9493 C.2       1 <0>        -0.1234
     19 C17         7.0058    3.4924   -2.1605 C.2       1 <0>        -0.2755
     20 S1          6.1640    2.2478   -2.9118 S.3       1 <0>         0.2809
     21 Br1         6.5389    4.4211   -0.5808 Br        1 <0>         0.0210
     22 S2          4.6870    0.0614   -4.2382 S.3       1 <0>        -0.1217
     23 C18         4.2599   -2.6285   -7.1291 C.2       1 <0>         0.5389
     24 O2          4.9790   -2.8612   -8.0826 O.2       1 <0>        -0.5297
     25 O3          3.1272   -3.3392   -6.9491 O.3       1 <0>        -0.3414
     26 C19         2.8344   -4.3493   -7.9166 C.3       1 <0>         0.0633
     27 C20         1.5214   -5.0430   -7.5482 C.3       1 <0>        -0.1440
     28 H1          1.0039    1.9031    0.0027 H         1 <0>         0.0559
     29 H2         -0.5459    1.8868   -0.8726 H         1 <0>         0.0546
     30 H3         -0.5289    1.8773    0.9072 H         1 <0>         0.0521
     31 H4          0.5293   -0.3651    0.8851 H         1 <0>         0.0663
     32 H5         -1.0205   -0.3814    0.0098 H         1 <0>         0.0660
     33 H6         -1.0812   -0.5466   -2.4086 H         1 <0>         0.1176
     34 H7          0.0584   -1.3400   -4.4379 H         1 <0>         0.1232
     35 H8          3.7934   -1.3190   -2.3213 H         1 <0>         0.1251
     36 H9          2.6326   -0.5175   -0.3072 H         1 <0>         0.1165
     37 H10         7.9002    0.9641   -6.0993 H         1 <0>         0.1660
     38 H11         9.1054    3.0101   -4.7255 H         1 <0>         0.1482
     39 H12         8.8238    4.4421   -2.7017 H         1 <0>         0.1334
     40 H13         2.7400   -3.8924   -8.9017 H         1 <0>         0.0530
     41 H14         3.6408   -5.0824   -7.9319 H         1 <0>         0.0529
     42 H15         0.7149   -4.3099   -7.5329 H         1 <0>         0.0617
     43 H16         1.2980   -5.8135   -8.2862 H         1 <0>         0.0661
     44 H17         1.6158   -5.4999   -6.5631 H         1 <0>         0.0617
@<TRIPOS>BOND
     1    1    2 1
     2    1   28 1
     3    1   29 1
     4    1   30 1
     5    2    3 1
     6    2   31 1
     7    2   32 1
     8    3    8 ar
     9    3    4 ar
    10    4    5 ar
    11    4   33 1
    12    5    6 ar
    13    5   34 1
    14    6    7 ar
    15    6    9 1
    16    7    8 ar
    17    7   35 1
    18    8   36 1
    19    9   10 2
    20   10   22 1
    21   10   11 1
    22   11   12 2
    23   11   23 1
    24   12   13 1
    25   12   14 1
    26   14   15 2
    27   14   22 1
    28   15   16 1
    29   15   37 1
    30   16   20 1
    31   16   17 2
    32   17   18 1
    33   17   38 1
    34   18   19 2
    35   18   39 1
    36   19   20 1
    37   19   21 1
    38   23   24 2
    39   23   25 1
    40   25   26 1
    41   26   27 1
    42   26   40 1
    43   26   41 1
    44   27   42 1
    45   27   43 1
    46   27   44 1
@<TRIPOS>MOLECULE
ZINC08821777
   55    58     0     0     0
SMALL
USER_CHARGES

@<TRIPOS>ATOM
      1 C1         -2.9473    3.6278   -0.5724 C.3       1 <0>        -0.1378
      2 C2         -1.9746    2.5827   -0.0221 C.3       1 <0>        -0.0645
      3 C3         -2.6705    1.2493    0.0723 C.ar      1 <0>        -0.1067
      4 C4         -3.2554    0.8573    1.2606 C.ar      1 <0>        -0.1112
      5 C5         -3.8945   -0.3657    1.3480 C.ar      1 <0>        -0.1678
      6 C6         -3.9500   -1.2007    0.2467 C.ar      1 <0>        -0.1127
      7 C7         -3.3673   -0.8149   -0.9442 C.ar      1 <0>        -0.1510
      8 C8         -2.7294    0.4158   -1.0370 C.ar      1 <0>         0.1613
      9 N1         -2.1435    0.8119   -2.2429 N.2       1 <0>        -0.5611
     10 C9         -2.5959    0.2923   -3.4281 C.2       1 <0>         0.4250
     11 N2         -3.6843   -0.4285   -3.6469 N.2       1 <0>        -0.7114
     12 C10        -4.0091   -0.8707   -4.8417 C.2       1 <0>         0.5287
     13 O1         -5.0159   -1.5345   -5.0309 O.2       1 <0>        -0.5423
     14 C11        -3.0861   -0.5186   -5.9459 C.2       1 <0>        -0.1770
     15 C12        -3.1533   -0.8251   -7.2665 C.2       1 <0>        -0.0284
     16 C13        -2.0288   -0.5016   -8.1532 C.ar      1 <0>        -0.0505
     17 C14        -0.8147   -0.0577   -7.6147 C.ar      1 <0>        -0.0986
     18 C15         0.2386    0.2445   -8.4492 C.ar      1 <0>        -0.1659
     19 C16         0.1002    0.1109   -9.8245 C.ar      1 <0>         0.1020
     20 C17        -1.1056   -0.3300  -10.3689 C.ar      1 <0>         0.0979
     21 C18        -2.1651   -0.6414   -9.5400 C.ar      1 <0>        -0.1554
     22 O2         -1.2362   -0.4588  -11.7164 O.3       1 <0>        -0.3087
     23 C19        -2.4990   -0.9154  -12.2051 C.3       1 <0>         0.0255
     24 O3          1.1425    0.4110  -10.6422 O.3       1 <0>        -0.2999
     25 C20         2.3484    0.8574  -10.0188 C.3       1 <0>         0.0977
     26 C21         3.3851    1.1405  -11.0753 C.ar      1 <0>        -0.0786
     27 C22         3.0785    0.9587  -12.4109 C.ar      1 <0>        -0.0838
     28 C23         4.0292    1.2184  -13.3801 C.ar      1 <0>        -0.1153
     29 C24         5.2873    1.6601  -13.0143 C.ar      1 <0>        -0.1088
     30 C25         5.5949    1.8422  -11.6795 C.ar      1 <0>        -0.1100
     31 C26         4.6418    1.5879  -10.7091 C.ar      1 <0>        -0.0313
     32 Cl1         5.0254    1.8227   -9.0324 Cl        1 <0>        -0.0638
     33 S1         -1.8632    0.4313   -5.0510 S.3       1 <0>        -0.1123
     34 H1         -2.4440    4.5922   -0.6407 H         1 <0>         0.0459
     35 H2         -3.2854    3.3234   -1.5629 H         1 <0>         0.0569
     36 H3         -3.8054    3.7122    0.0944 H         1 <0>         0.0441
     37 H4         -1.1165    2.4983   -0.6890 H         1 <0>         0.0766
     38 H5         -1.6365    2.8870    0.9684 H         1 <0>         0.0522
     39 H6         -3.2132    1.5067    2.1226 H         1 <0>         0.1091
     40 H7         -4.3510   -0.6698    2.2783 H         1 <0>         0.1058
     41 H8         -4.4493   -2.1556    0.3185 H         1 <0>         0.1061
     42 H9         -3.4107   -1.4675   -1.8036 H         1 <0>         0.1337
     43 H10        -4.0339   -1.3069   -7.6649 H         1 <0>         0.1452
     44 H11        -0.7043    0.0479   -6.5455 H         1 <0>         0.1487
     45 H12         1.1745    0.5867   -8.0329 H         1 <0>         0.1373
     46 H13        -3.0979   -0.9872   -9.9603 H         1 <0>         0.1395
     47 H14        -2.7122   -1.9024  -11.7946 H         1 <0>         0.0552
     48 H15        -3.2800   -0.2188  -11.9004 H         1 <0>         0.0553
     49 H16        -2.4681   -0.9734  -13.2931 H         1 <0>         0.0979
     50 H17         2.1493    1.7670   -9.4521 H         1 <0>         0.0826
     51 H18         2.7175    0.0836   -9.3457 H         1 <0>         0.0821
     52 H19         2.0960    0.6134  -12.6972 H         1 <0>         0.1449
     53 H20         3.7893    1.0759  -14.4234 H         1 <0>         0.1305
     54 H21         6.0298    1.8624  -13.7720 H         1 <0>         0.1319
     55 H22         6.5778    2.1869  -11.3939 H         1 <0>         0.1353
@<TRIPOS>BOND
     1    1    2 1
     2    1   34 1
     3    1   35 1
     4    1   36 1
     5    2    3 1
     6    2   37 1
     7    2   38 1
     8    3    8 ar
     9    3    4 ar
    10    4    5 ar
    11    4   39 1
    12    5    6 ar
    13    5   40 1
    14    6    7 ar
    15    6   41 1
    16    7    8 ar
    17    7   42 1
    18    8    9 1
    19    9   10 1
    20   10   33 1
    21   10   11 2
    22   11   12 1
    23   12   13 2
    24   12   14 1
    25   14   15 2
    26   14   33 1
    27   15   16 1
    28   15   43 1
    29   16   21 ar
    30   16   17 ar
    31   17   18 ar
    32   17   44 1
    33   18   19 ar
    34   18   45 1
    35   19   20 ar
    36   19   24 1
    37   20   21 ar
    38   20   22 1
    39   21   46 1
    40   22   23 1
    41   23   47 1
    42   23   48 1
    43   23   49 1
    44   24   25 1
    45   25   26 1
    46   25   50 1
    47   25   51 1
    48   26   31 ar
    49   26   27 ar
    50   27   28 ar
    51   27   52 1
    52   28   29 ar
    53   28   53 1
    54   29   30 ar
    55   29   54 1
    56   30   31 ar
    57   30   55 1
    58   31   32 1
@<TRIPOS>MOLECULE
ZINC19873099
   55    58     0     0     0
SMALL
USER_CHARGES
3-[2,5-dimethyl-3-[(E)-[1-(m-tolyl)-4,6-dioxo-2-thioxo-hexahydropyrimidin-5-ylidene]methyl]pyrrol-1-yl]-2-methyl-benzoic acid
@<TRIPOS>ATOM
      1 C1          1.8896    2.8861   -2.0276 C.3       1 <0>        -0.1080
      2 C2          1.0684    3.1746   -0.7973 C.ar      1 <0>        -0.0895
      3 C3          1.4112    4.2281    0.0305 C.ar      1 <0>        -0.1217
      4 C4          0.6606    4.4957    1.1604 C.ar      1 <0>        -0.1159
      5 C5         -0.4350    3.7116    1.4652 C.ar      1 <0>        -0.0721
      6 C6         -0.7819    2.6536    0.6359 C.ar      1 <0>         0.1636
      7 C7         -0.0257    2.3871   -0.4980 C.ar      1 <0>        -0.0976
      8 N1         -1.8922    1.8562    0.9425 N.am      1 <0>        -0.5114
      9 C8         -2.9819    1.9108    0.1492 C.2       1 <0>         0.5631
     10 O1         -3.0103    2.6405   -0.8240 O.2       1 <0>        -0.5200
     11 C9         -4.1373    1.0619    0.4933 C.2       1 <0>        -0.3202
     12 C10        -5.2902    1.0642   -0.2743 C.2       1 <0>         0.1341
     13 C11        -6.3045    0.1074   -0.0308 C.2       1 <0>        -0.1980
     14 C12        -6.1260   -1.3328    0.2073 C.2       1 <0>        -0.0825
     15 C13        -7.3548   -1.8424    0.3894 C.2       1 <0>        -0.0009
     16 N2         -8.2792   -0.8394    0.2843 N.pl3     1 <0>        -0.3763
     17 C14        -7.6708    0.3364    0.0385 C.2       1 <0>         0.0928
     18 C15        -8.3551    1.6679   -0.1344 C.3       1 <0>        -0.0936
     19 C16        -9.6637   -1.0105    0.4194 C.ar      1 <0>         0.0752
     20 C17       -10.2592   -0.8946    1.6698 C.ar      1 <0>        -0.0996
     21 C18       -11.6250   -1.0567    1.8079 C.ar      1 <0>        -0.1425
     22 C19       -12.4051   -1.3460    0.7069 C.ar      1 <0>        -0.0616
     23 C20       -11.8156   -1.4702   -0.5528 C.ar      1 <0>        -0.1204
     24 C21       -10.4376   -1.3007   -0.6926 C.ar      1 <0>        -0.0188
     25 C22        -9.7932   -1.4334   -2.0484 C.3       1 <0>        -0.1848
     26 C23       -12.6481   -1.7793   -1.7336 C.2       1 <0>         0.4985
     27 O2        -12.1224   -2.0018   -2.8058 O.co2     1 <0>        -0.6078
     28 O3        -13.9900   -1.8146   -1.6211 O.co2     1 <0>        -0.7476
     29 C24        -7.6665   -3.2905    0.6665 C.3       1 <0>        -0.0799
     30 C25        -4.0112    0.2098    1.6905 C.2       1 <0>         0.5276
     31 O4         -4.9218   -0.5183    2.0381 O.3       1 <0>        -0.4908
     32 N3         -2.8584    0.2594    2.3894 N.2       1 <0>        -0.6258
     33 C26        -1.8451    1.0526    2.0143 C.2       1 <0>         0.5470
     34 S1         -0.4173    1.0445    2.9588 S.2       1 <0>        -0.7186
     35 H1          2.7121    3.6131   -2.0982 H         1 <0>         0.0613
     36 H2          1.2523    2.9655   -2.9207 H         1 <0>         0.0649
     37 H3          2.3037    1.8692   -1.9618 H         1 <0>         0.0659
     38 H4          2.2669    4.8431   -0.2060 H         1 <0>         0.1165
     39 H5          0.9307    5.3191    1.8050 H         1 <0>         0.1208
     40 H6         -1.0238    3.9240    2.3453 H         1 <0>         0.1204
     41 H7         -0.2933    1.5650   -1.1453 H         1 <0>         0.1150
     42 H8         -5.4176    1.8096   -1.0732 H         1 <0>         0.1307
     43 H9         -5.1915   -1.8737    0.2307 H         1 <0>         0.1361
     44 H10        -9.4421    1.5383   -0.0261 H         1 <0>         0.0693
     45 H11        -8.1314    2.0680   -1.1343 H         1 <0>         0.0804
     46 H12        -7.9913    2.3692    0.6310 H         1 <0>         0.0778
     47 H13        -9.6533   -0.6730    2.5359 H         1 <0>         0.1215
     48 H14       -12.0825   -0.9611    2.7815 H         1 <0>         0.1236
     49 H15       -13.4713   -1.4761    0.8195 H         1 <0>         0.1343
     50 H16       -10.5632   -1.6638   -2.7994 H         1 <0>         0.1612
     51 H17        -9.0507   -2.2447   -2.0236 H         1 <0>         0.0534
     52 H18        -9.2953   -0.4886   -2.3118 H         1 <0>         0.0492
     53 H19        -8.7541   -3.4179    0.7710 H         1 <0>         0.0605
     54 H20        -7.1698   -3.6008    1.5976 H         1 <0>         0.0721
     55 H21        -7.3031   -3.9097   -0.1669 H         1 <0>         0.0691
@<TRIPOS>BOND
     1    1    2 1
     2    1   35 1
     3    1   36 1
     4    1   37 1
     5    2    7 ar
     6    2    3 ar
     7    3    4 ar
     8    3   38 1
     9    4    5 ar
    10    4   39 1
    11    5    6 ar
    12    5   40 1
    13    6    7 ar
    14    6    8 1
    15    7   41 1
    16    8   33 1
    17    8    9 am
    18    9   10 2
    19    9   11 1
    20   11   12 2
    21   11   30 1
    22   12   13 1
    23   12   42 1
    24   13   17 2
    25   13   14 1
    26   14   15 2
    27   14   43 1
    28   15   16 1
    29   15   29 1
    30   16   17 1
    31   16   19 1
    32   17   18 1
    33   18   44 1
    34   18   45 1
    35   18   46 1
    36   19   24 ar
    37   19   20 ar
    38   20   21 ar
    39   20   47 1
    40   21   22 ar
    41   21   48 1
    42   22   23 ar
    43   22   49 1
    44   23   24 ar
    45   23   26 1
    46   24   25 1
    47   25   50 1
    48   25   51 1
    49   25   52 1
    50   26   27 2
    51   26   28 1
    52   29   53 1
    53   29   54 1
    54   29   55 1
    55   30   31 1
    56   30   32 2
    57   32   33 1
    58   33   34 2
@<TRIPOS>MOLECULE
ZINC35092846
   45    48     0     0     0
SMALL
USER_CHARGES

@<TRIPOS>ATOM
      1 C1          0.1976    1.4213    1.7342 C.3       1 <0>         0.0295
      2 O1          0.1918    0.0260    1.4260 O.3       1 <0>        -0.3104
      3 C2         -1.0118   -0.5374    1.1371 C.ar      1 <0>         0.0904
      4 C3         -2.1607    0.2372    1.1444 C.ar      1 <0>        -0.2055
      5 C4         -3.3833   -0.3370    0.8499 C.ar      1 <0>        -0.0936
      6 C5         -3.4632   -1.6838    0.5482 C.ar      1 <0>        -0.1277
      7 C6         -2.3209   -2.4624    0.5396 C.ar      1 <0>        -0.0448
      8 C7         -1.0914   -1.8918    0.8278 C.ar      1 <0>         0.0842
      9 O2          0.0341   -2.6550    0.8139 O.3       1 <0>        -0.4761
     10 C8         -2.4119   -3.9302    0.2108 C.3       1 <0>         0.0774
     11 H1         -1.4051   -4.3390    0.1254 H         1 <0>         0.1011
     12 C9         -3.1153   -4.0945   -1.0896 C.2       1 <0>        -0.2707
     13 C10        -4.0293   -5.0352   -1.4636 C.2       1 <0>         0.2111
     14 N1         -4.4758   -4.9196   -2.7138 N.2       1 <0>        -0.6421
     15 C11        -4.0628   -3.9629   -3.5128 C.2       1 <0>         0.4237
     16 O3         -4.4270   -3.7224   -4.7960 O.3       1 <0>        -0.6618
     17 S1         -2.9723   -3.1062   -2.5572 S.3       1 <0>        -0.1361
     18 S2         -4.5496   -6.2944   -0.3194 S.3       1 <0>        -0.0942
     19 C12        -3.3068   -6.1364    1.0010 C.3       1 <0>        -0.1290
     20 H2         -3.6391   -6.6808    1.8849 H         1 <0>         0.1016
     21 C13        -3.1487   -4.6498    1.3389 C.3       1 <0>        -0.0928
     22 H3         -2.5807   -4.5488    2.2638 H         1 <0>         0.0928
     23 C14        -4.5102   -4.0301    1.5215 C.2       1 <0>         0.3779
     24 O4         -5.2248   -3.8421    0.5599 O.2       1 <0>        -0.3867
     25 C15        -4.9722   -3.6535    2.8654 C.ar      1 <0>        -0.1456
     26 C16        -4.1478   -3.8638    3.9765 C.ar      1 <0>        -0.0500
     27 C17        -4.5868   -3.5088    5.2330 C.ar      1 <0>        -0.1631
     28 C18        -5.8431   -2.9443    5.3983 C.ar      1 <0>         0.1077
     29 C19        -6.6652   -2.7331    4.3011 C.ar      1 <0>        -0.1656
     30 C20        -6.2360   -3.0779    3.0385 C.ar      1 <0>        -0.0395
     31 F1         -6.2680   -2.5990    6.6334 F         1 <0>        -0.1440
     32 C21        -1.9893   -6.6940    0.5272 C.2       1 <0>         0.5069
     33 O5         -1.7368   -6.7320   -0.6650 O.co2     1 <0>        -0.6451
     34 O6         -1.1759   -7.1070    1.3361 O.co2     1 <0>        -0.7018
     35 H4          1.2177    1.7426    1.9447 H         1 <0>         0.0924
     36 H5         -0.1922    1.9826    0.8851 H         1 <0>         0.0508
     37 H6         -0.4282    1.6031    2.6080 H         1 <0>         0.0491
     38 H7         -2.1011    1.2894    1.3804 H         1 <0>         0.1219
     39 H8         -4.2780    0.2678    0.8560 H         1 <0>         0.1193
     40 H9         -4.4202   -2.1288    0.3191 H         1 <0>         0.1448
     41 H10         0.2424   -3.0641    1.6650 H         1 <0>         0.3812
     42 H11        -3.1698   -4.3039    3.8492 H         1 <0>         0.1457
     43 H12        -3.9516   -3.6705    6.0913 H         1 <0>         0.1372
     44 H13        -7.6422   -2.2932    4.4367 H         1 <0>         0.1354
     45 H14        -6.8752   -2.9089    2.1845 H         1 <0>         0.1441
@<TRIPOS>BOND
     1    1    2 1
     2    1   35 1
     3    1   36 1
     4    1   37 1
     5    2    3 1
     6    3    8 ar
     7    3    4 ar
     8    4    5 ar
     9    4   38 1
    10    5    6 ar
    11    5   39 1
    12    6    7 ar
    13    6   40 1
    14    7    8 ar
    15    7   10 1
    16    8    9 1
    17    9   41 1
    18   10   11 1
    19   10   21 1
    20   10   12 1
    21   12   17 1
    22   12   13 2
    23   13   14 1
    24   13   18 1
    25   14   15 2
    26   15   16 1
    27   15   17 1
    28   18   19 1
    29   19   20 1
    30   19   21 1
    31   19   32 1
    32   21   22 1
    33   21   23 1
    34   23   24 2
    35   23   25 1
    36   25   30 ar
    37   25   26 ar
    38   26   27 ar
    39   26   42 1
    40   27   28 ar
    41   27   43 1
    42   28   29 ar
    43   28   31 1
    44   29   30 ar
    45   29   44 1
    46   30   45 1
    47   32   33 2
    48   32   34 1
@<TRIPOS>MOLECULE
ZINC13193731
   42    45     0     0     0
SMALL
USER_CHARGES

@<TRIPOS>ATOM
      1 C1         -1.0155   -3.2540    2.2262 C.3       1 <0>        -0.0925
      2 C2         -0.5856   -2.4622    1.0182 C.2       1 <0>        -0.0995
      3 C3         -0.5689   -3.0469   -0.2342 C.2       1 <0>        -0.1401
      4 C4         -0.1769   -2.3068   -1.2999 C.2       1 <0>        -0.1932
      5 S1          0.1859   -0.7315   -0.5423 S.3       1 <0>         0.0271
      6 C5         -0.2149   -1.1644    1.1428 C.2       1 <0>        -0.1287
      7 C6         -0.1550   -0.3092    2.3822 C.3       1 <0>         0.2914
      8 H1          0.0269    0.7308    2.1112 H         1 <0>         0.0793
      9 C7         -1.4469   -0.4260    3.1570 C.2       1 <0>        -0.4782
     10 C8         -1.1289   -0.9283    4.3724 C.2       1 <0>         0.2985
     11 C9          0.3284   -1.1521    4.4395 C.2       1 <0>         0.4989
     12 O1          0.9219   -1.5966    5.4025 O.2       1 <0>        -0.4890
     13 N1          0.9042   -0.7905    3.2769 N.am      1 <0>        -0.5429
     14 C10         2.2673   -0.8615    2.9750 C.ar      1 <0>         0.1601
     15 C11         2.7259   -0.4476    1.7292 C.ar      1 <0>        -0.1654
     16 C12         4.0725   -0.5156    1.4251 C.ar      1 <0>        -0.1154
     17 C13         4.9718   -0.9952    2.3554 C.ar      1 <0>        -0.1164
     18 C14         4.5220   -1.4138    3.6103 C.ar      1 <0>        -0.1114
     19 C15         3.1623   -1.3393    3.9194 C.ar      1 <0>        -0.1186
     20 C16         5.4809   -1.9276    4.6072 C.2       1 <0>         0.5224
     21 O2          6.6718   -1.9876    4.3357 O.co2     1 <0>        -0.6971
     22 O3          5.0848   -2.2934    5.7048 O.co2     1 <0>        -0.6804
     23 O4         -2.0083   -1.1847    5.3693 O.3       1 <0>        -0.5973
     24 C17        -2.7878   -0.0643    2.6829 C.2       1 <0>         0.4993
     25 O5         -3.7654   -0.3271    3.3612 O.2       1 <0>        -0.4840
     26 C18        -2.9512    0.6128    1.3936 C.2       1 <0>        -0.2158
     27 C19        -4.1204    0.9392    0.7178 C.2       1 <0>        -0.1224
     28 C20        -3.9540    1.5794   -0.4853 C.2       1 <0>        -0.1787
     29 C21        -2.6969    1.8442   -0.9237 C.2       1 <0>        -0.2776
     30 S2         -1.7018    1.2394    0.2871 S.3       1 <0>         0.2298
     31 H2         -2.0738   -3.0773    2.4187 H         1 <0>         0.0743
     32 H3         -0.8522   -4.3158    2.0417 H         1 <0>         0.0529
     33 H4         -0.4317   -2.9416    3.0920 H         1 <0>         0.0660
     34 H5         -0.8634   -4.0781   -0.3615 H         1 <0>         0.1267
     35 H6         -0.1028   -2.5953   -2.3380 H         1 <0>         0.1776
     36 H7          2.0272   -0.0719    0.9963 H         1 <0>         0.1162
     37 H8          4.4222   -0.1925    0.4557 H         1 <0>         0.1135
     38 H9          6.0230   -1.0473    2.1135 H         1 <0>         0.1215
     39 H10         2.8088   -1.6568    4.8892 H         1 <0>         0.1571
     40 H11        -5.0975    0.7040    1.1133 H         1 <0>         0.1377
     41 H12        -4.8116    1.8680   -1.0750 H         1 <0>         0.1202
     42 H13        -2.4035    2.3355   -1.8397 H         1 <0>         0.1740
@<TRIPOS>BOND
     1    1    2 1
     2    1   31 1
     3    1   32 1
     4    1   33 1
     5    2    6 2
     6    2    3 1
     7    3    4 2
     8    3   34 1
     9    4    5 1
    10    4   35 1
    11    5    6 1
    12    6    7 1
    13    7    8 1
    14    7   13 1
    15    7    9 1
    16    9   10 2
    17    9   24 1
    18   10   11 1
    19   10   23 1
    20   11   12 2
    21   11   13 am
    22   13   14 1
    23   14   19 ar
    24   14   15 ar
    25   15   16 ar
    26   15   36 1
    27   16   17 ar
    28   16   37 1
    29   17   18 ar
    30   17   38 1
    31   18   19 ar
    32   18   20 1
    33   19   39 1
    34   20   21 2
    35   20   22 1
    36   24   25 2
    37   24   26 1
    38   26   30 1
    39   26   27 2
    40   27   28 1
    41   27   40 1
    42   28   29 2
    43   28   41 1
    44   29   30 1
    45   29   42 1
@<TRIPOS>MOLECULE
ZINC55311864
   31    32     0     0     0
SMALL
USER_CHARGES

@<TRIPOS>ATOM
      1 C1         -0.0184    1.5028    0.0103 C.3       1 <0>        -0.0978
      2 C2          0.0021   -0.0041    0.0020 C.ar      1 <0>        -0.1796
      3 C3          0.0057   -0.6874   -1.2003 C.ar      1 <0>        -0.0724
      4 C4          0.0244   -2.0682   -1.2116 C.ar      1 <0>        -0.1676
      5 C5          0.0396   -2.7712   -0.0133 C.ar      1 <0>         0.2865
      6 C6          0.0359   -2.0823    1.1926 C.ar      1 <0>        -0.2333
      7 C7          0.0229   -0.7005    1.1969 C.ar      1 <0>        -0.0253
      8 I1          0.0266    0.3404    3.0150 I         1 <0>        -0.0949
      9 N1          0.0581   -4.1678   -0.0215 N.2       1 <0>        -1.0862
     10 S1          0.0762   -5.0040    1.4078 S.o2      1 <0>         2.6404
     11 O1          1.3209   -4.7172    2.0304 O.2       1 <0>        -1.0302
     12 O2         -1.1695   -4.7502    2.0426 O.2       1 <0>        -1.0359
     13 C8          0.0970   -6.7198    1.0073 C.2       1 <0>        -0.7126
     14 C9          1.1305   -7.6259    1.2831 C.2       1 <0>        -0.1141
     15 C10         0.7208   -8.8484    0.7960 C.2       1 <0>        -0.0707
     16 O3         -0.5039   -8.6863    0.2516 O.3       1 <0>        -0.1497
     17 C11        -0.8836   -7.4097    0.3818 C.2       1 <0>         0.0840
     18 C12        -2.1918   -6.8331   -0.0948 C.3       1 <0>        -0.0904
     19 C13         1.4772  -10.0971    0.8575 C.2       1 <0>         0.5670
     20 O4          2.5850  -10.1170    1.3798 O.co2     1 <0>        -0.6631
     21 O5          1.0035  -11.1240    0.3868 O.co2     1 <0>        -0.6784
     22 H1          1.0042    1.8801    0.0026 H         1 <0>         0.0530
     23 H2         -0.5455    1.8639   -0.8728 H         1 <0>         0.0532
     24 H3         -0.5286    1.8543    0.9071 H         1 <0>         0.0594
     25 H4         -0.0065   -0.1406   -2.1315 H         1 <0>         0.1098
     26 H5          0.0269   -2.6010   -2.1510 H         1 <0>         0.1170
     27 H6          0.0477   -2.6259    2.1258 H         1 <0>         0.1062
     28 H7          2.0647   -7.4085    1.7795 H         1 <0>         0.1553
     29 H8         -2.0802   -6.4767   -1.1188 H         1 <0>         0.0912
     30 H9         -2.9624   -7.6032   -0.0600 H         1 <0>         0.0752
     31 H10        -2.4790   -6.0023    0.5498 H         1 <0>         0.1039
@<TRIPOS>BOND
     1    1    2 1
     2    1   22 1
     3    1   23 1
     4    1   24 1
     5    2    7 ar
     6    2    3 ar
     7    3    4 ar
     8    3   25 1
     9    4    5 ar
    10    4   26 1
    11    5    6 ar
    12    5    9 1
    13    6    7 ar
    14    6   27 1
    15    7    8 1
    16    9   10 1
    17   10   11 2
    18   10   12 2
    19   10   13 1
    20   13   17 2
    21   13   14 1
    22   14   15 2
    23   14   28 1
    24   15   16 1
    25   15   19 1
    26   16   17 1
    27   17   18 1
    28   18   29 1
    29   18   30 1
    30   18   31 1
    31   19   20 2
    32   19   21 1
@<TRIPOS>MOLECULE
ZINC09506832
   44    46     0     0     0
SMALL
USER_CHARGES

@<TRIPOS>ATOM
      1 C1         -0.0881    1.5049    0.6940 C.3       1 <0>        -0.1472
      2 C2         -0.0518    0.0086    0.3767 C.3       1 <0>         0.0718
      3 O1         -1.3845   -0.5067    0.3580 O.3       1 <0>        -0.3313
      4 C3         -1.5290   -1.8199    0.0913 C.2       1 <0>         0.4531
      5 C4         -2.7916   -2.3840    0.0577 C.2       1 <0>        -0.4513
      6 C5         -2.9579   -3.8227   -0.0933 C.2       1 <0>         0.3369
      7 N1         -3.9382   -4.3733   -0.6830 N.2       1 <0>        -0.6266
      8 C6         -5.1334   -3.9910   -1.1688 C.ar      1 <0>         0.0598
      9 C7         -5.9468   -5.0370   -1.6539 C.ar      1 <0>        -0.0895
     10 C8         -7.2028   -4.7909   -2.1537 C.ar      1 <0>        -0.2186
     11 C9         -7.6939   -3.4981   -2.1873 C.ar      1 <0>        -0.1180
     12 C10        -6.9108   -2.4598   -1.7285 C.ar      1 <0>        -0.1702
     13 C11        -5.6289   -2.6901   -1.2305 C.ar      1 <0>         0.2255
     14 N2         -4.9093   -1.5538   -0.8506 N.2       1 <0>        -0.8102
     15 C12        -3.9964   -1.5397    0.1803 C.2       1 <0>         0.6252
     16 N3         -4.1877   -0.7995    1.2384 N.2       1 <0>        -1.0001
     17 S1         -5.5458    0.1407    1.3567 S.o2      1 <0>         2.6143
     18 O2         -5.4431    1.1319    0.3438 O.2       1 <0>        -0.9978
     19 O3         -6.6500   -0.7498    1.4421 O.2       1 <0>        -1.0019
     20 C13        -5.4608    0.9869    2.8999 C.ar      1 <0>        -0.6205
     21 C14        -6.0027    0.4115    4.0341 C.ar      1 <0>        -0.0109
     22 C15        -5.9364    1.0748    5.2449 C.ar      1 <0>        -0.1376
     23 C16        -5.3275    2.3148    5.3216 C.ar      1 <0>        -0.0008
     24 C17        -4.7854    2.8901    4.1862 C.ar      1 <0>        -0.1377
     25 C18        -4.8473    2.2233    2.9771 C.ar      1 <0>        -0.0090
     26 Cl1        -5.2443    3.1487    6.8419 Cl        1 <0>        -0.0828
     27 C19        -1.8948   -4.7181    0.4890 C.3       1 <0>        -0.0741
     28 O4         -0.4434   -2.5835   -0.1425 O.3       1 <0>        -0.7171
     29 H1          0.9285    1.8981    0.7083 H         1 <0>         0.0581
     30 H2         -0.6678    2.0243   -0.0691 H         1 <0>         0.0581
     31 H3         -0.5507    1.6585    1.6689 H         1 <0>         0.0585
     32 H4          0.4108   -0.1449   -0.5983 H         1 <0>         0.0436
     33 H5          0.5279   -0.5107    1.1398 H         1 <0>         0.0460
     34 H6         -5.5748   -6.0507   -1.6323 H         1 <0>         0.0946
     35 H7         -7.8069   -5.6074   -2.5209 H         1 <0>         0.0898
     36 H8         -8.6847   -3.3031   -2.5703 H         1 <0>         0.0913
     37 H9         -7.2968   -1.4515   -1.7554 H         1 <0>         0.0959
     38 H10        -6.4783   -0.5563    3.9741 H         1 <0>         0.1465
     39 H11        -6.3600    0.6254    6.1309 H         1 <0>         0.1356
     40 H12        -4.3102    3.8581    4.2454 H         1 <0>         0.1355
     41 H13        -4.4200    2.6701    2.0916 H         1 <0>         0.1468
     42 H14        -1.4854   -4.2585    1.3886 H         1 <0>         0.0587
     43 H15        -2.3318   -5.6843    0.7413 H         1 <0>         0.0387
     44 H16        -1.0984   -4.8592   -0.2417 H         1 <0>         0.0687
@<TRIPOS>BOND
     1    1    2 1
     2    1   29 1
     3    1   30 1
     4    1   31 1
     5    2    3 1
     6    2   32 1
     7    2   33 1
     8    3    4 1
     9    4    5 2
    10    4   28 1
    11    5   15 1
    12    5    6 1
    13    6    7 2
    14    6   27 1
    15    7    8 1
    16    8   13 ar
    17    8    9 ar
    18    9   10 ar
    19    9   34 1
    20   10   11 ar
    21   10   35 1
    22   11   12 ar
    23   11   36 1
    24   12   13 ar
    25   12   37 1
    26   13   14 1
    27   14   15 1
    28   15   16 2
    29   16   17 1
    30   17   18 2
    31   17   19 2
    32   17   20 1
    33   20   25 ar
    34   20   21 ar
    35   21   22 ar
    36   21   38 1
    37   22   23 ar
    38   22   39 1
    39   23   24 ar
    40   23   26 1
    41   24   25 ar
    42   24   40 1
    43   25   41 1
    44   27   42 1
    45   27   43 1
    46   27   44 1
@<TRIPOS>MOLECULE
ZINC13751048
   65    68     0     0     0
SMALL
USER_CHARGES
(5S)-5-(4-chlorophenyl)-3-hydroxy-4-(4-isopropoxy-3-methyl-benzoyl)-1-(2-morpholinoethyl)-5H-pyrrol-2-one
@<TRIPOS>ATOM
      1 C1         -5.3999    4.1460   -2.2162 C.3       1 <0>        -0.0986
      2 C2         -4.1927    3.2439   -2.2172 C.ar      1 <0>        -0.1362
      3 C3         -3.2896    3.3029   -1.1797 C.ar      1 <0>        -0.0346
      4 C4         -2.1698    2.4659   -1.1819 C.ar      1 <0>        -0.1709
      5 C5         -1.9692    1.5756   -2.2415 C.ar      1 <0>        -0.0301
      6 C6         -2.8800    1.5190   -3.2720 C.ar      1 <0>        -0.2260
      7 C7         -3.9923    2.3537   -3.2661 C.ar      1 <0>         0.1459
      8 O1         -4.8848    2.2987   -4.2868 O.3       1 <0>        -0.3120
      9 C8         -4.5754    1.4229   -5.3727 C.3       1 <0>         0.0728
     10 C9         -5.8640    1.0434   -6.1050 C.3       1 <0>        -0.1474
     11 C10        -3.6265    2.1292   -6.3431 C.3       1 <0>        -0.1808
     12 C11        -1.1987    2.5260   -0.0719 C.2       1 <0>         0.5075
     13 O2         -1.4092    3.2517    0.8822 O.2       1 <0>        -0.4755
     14 C12         0.0197    1.7114   -0.1186 C.2       1 <0>        -0.4994
     15 C13         1.2903    2.1649   -0.2240 C.2       1 <0>         0.2637
     16 C14         2.2169    1.0137   -0.2429 C.2       1 <0>         0.5118
     17 O3          3.4262    1.0933   -0.3294 O.2       1 <0>        -0.5333
     18 N1          1.5234   -0.1355   -0.1501 N.am      1 <0>        -0.6121
     19 C15         0.0980    0.2034   -0.0651 C.3       1 <0>         0.2651
     20 H1         -0.4509   -0.2714   -0.8917 H         1 <0>         0.0692
     21 C16        -0.4790   -0.2996    1.2331 C.ar      1 <0>        -0.0672
     22 C17         0.2322   -0.1505    2.4091 C.ar      1 <0>        -0.0777
     23 C18        -0.2989   -0.6066    3.6008 C.ar      1 <0>        -0.1102
     24 C19        -1.5377   -1.2226    3.6149 C.ar      1 <0>        -0.0406
     25 C20        -2.2465   -1.3765    2.4368 C.ar      1 <0>        -0.1113
     26 C21        -1.7168   -0.9150    1.2465 C.ar      1 <0>        -0.1031
     27 Cl1        -2.2026   -1.8015    5.1103 Cl        1 <0>        -0.0858
     28 C22         2.0907   -1.4861   -0.1364 C.3       1 <0>         0.1395
     29 C23         2.1890   -2.0125   -1.5697 C.3       1 <0>         0.0381
     30 N2          2.7579   -3.3669   -1.5559 N.3       1 <0>        -0.5322
     31 C24         4.1558   -3.3465   -1.1012 C.3       1 <0>         0.0105
     32 C25         4.6894   -4.7804   -1.0450 C.3       1 <0>         0.0635
     33 O4          4.5476   -5.3873   -2.3322 O.3       1 <0>        -0.3875
     34 C26         3.1986   -5.4245   -2.8057 C.3       1 <0>         0.0636
     35 C27         2.6499   -3.9971   -2.8797 C.3       1 <0>         0.0171
     36 O5          1.6546    3.4658   -0.3000 O.3       1 <0>        -0.6518
     37 H2         -5.3874    4.7742   -1.3133 H         1 <0>         0.0635
     38 H3         -6.3144    3.5347   -2.2250 H         1 <0>         0.0644
     39 H4         -5.3790    4.7875   -3.1095 H         1 <0>         0.0644
     40 H5         -3.4458    3.9950   -0.3654 H         1 <0>         0.1354
     41 H6         -1.1033    0.9302   -2.2490 H         1 <0>         0.1343
     42 H7         -2.7281    0.8286   -4.0885 H         1 <0>         0.1293
     43 H8         -4.0992    0.5406   -4.9202 H         1 <0>         0.0761
     44 H9         -5.6257    0.3692   -6.9409 H         1 <0>         0.0757
     45 H10        -6.3464    1.9525   -6.4932 H         1 <0>         0.0667
     46 H11        -6.5462    0.5356   -5.4074 H         1 <0>         0.0644
     47 H12        -3.3883    1.4550   -7.1790 H         1 <0>         0.0706
     48 H13        -2.7000    2.4020   -5.8166 H         1 <0>         0.0662
     49 H14        -4.1090    3.0383   -6.7313 H         1 <0>         0.0670
     50 H15         1.2012    0.3264    2.3973 H         1 <0>         0.1261
     51 H16         0.2549   -0.4861    4.5201 H         1 <0>         0.1281
     52 H17        -3.2134   -1.8576    2.4471 H         1 <0>         0.1280
     53 H18        -2.2702   -1.0348    0.3268 H         1 <0>         0.1283
     54 H19         3.0941   -1.4578    0.3135 H         1 <0>         0.0781
     55 H20         1.4426   -2.1501    0.4545 H         1 <0>         0.0848
     56 H21         1.1856   -2.0408   -2.0195 H         1 <0>         0.0798
     57 H22         2.8371   -1.3485   -2.1606 H         1 <0>         0.0426
     58 H23         4.7613   -2.7551   -1.8038 H         1 <0>         0.0457
     59 H24         4.2092   -2.8938   -0.1001 H         1 <0>         0.0913
     60 H25         5.7516   -4.7654   -0.7596 H         1 <0>         0.0983
     61 H26         4.1180   -5.3554   -0.3014 H         1 <0>         0.0603
     62 H27         3.1736   -5.8813   -3.8060 H         1 <0>         0.0969
     63 H28         2.5839   -6.0204   -2.1150 H         1 <0>         0.0599
     64 H29         1.5944   -4.0235   -3.1882 H         1 <0>         0.0867
     65 H30         3.2312   -3.4162   -3.6109 H         1 <0>         0.0429
@<TRIPOS>BOND
     1    1    2 1
     2    1   37 1
     3    1   38 1
     4    1   39 1
     5    2    7 ar
     6    2    3 ar
     7    3    4 ar
     8    3   40 1
     9    4    5 ar
    10    4   12 1
    11    5    6 ar
    12    5   41 1
    13    6    7 ar
    14    6   42 1
    15    7    8 1
    16    8    9 1
    17    9   10 1
    18    9   11 1
    19    9   43 1
    20   10   44 1
    21   10   45 1
    22   10   46 1
    23   11   47 1
    24   11   48 1
    25   11   49 1
    26   12   13 2
    27   12   14 1
    28   14   19 1
    29   14   15 2
    30   15   16 1
    31   15   36 1
    32   16   17 2
    33   16   18 am
    34   18   19 1
    35   18   28 1
    36   19   20 1
    37   19   21 1
    38   21   26 ar
    39   21   22 ar
    40   22   23 ar
    41   22   50 1
    42   23   24 ar
    43   23   51 1
    44   24   25 ar
    45   24   27 1
    46   25   26 ar
    47   25   52 1
    48   26   53 1
    49   28   29 1
    50   28   54 1
    51   28   55 1
    52   29   30 1
    53   29   56 1
    54   29   57 1
    55   30   35 1
    56   30   31 1
    57   31   32 1
    58   31   58 1
    59   31   59 1
    60   32   33 1
    61   32   60 1
    62   32   61 1
    63   33   34 1
    64   34   35 1
    65   34   62 1
    66   34   63 1
    67   35   64 1
    68   35   65 1
@<TRIPOS>MOLECULE
ZINC16805429
   51    54     0     0     0
SMALL
USER_CHARGES
methyl 2-[(2S,3E)-2-(4-chlorophenyl)-3-[(3-fluoro-4-methyl-phenyl)-hydroxy-methylene]-4,5-dioxo-pyrrolidin-1-yl]-4-methyl-thiazole-5-carboxylate
@<TRIPOS>ATOM
      1 C1          3.6133    2.1129    1.0383 C.3       1 <0>        -0.1096
      2 C2          2.3365    1.3591    0.7690 C.ar      1 <0>        -0.1204
      3 C3          1.5112    1.7514   -0.2705 C.ar      1 <0>        -0.1076
      4 C4          0.3412    1.0673   -0.5232 C.ar      1 <0>        -0.0911
      5 C5         -0.0125   -0.0263    0.2738 C.ar      1 <0>        -0.0561
      6 C6          0.8248   -0.4184    1.3225 C.ar      1 <0>        -0.0827
      7 C7          1.9939    0.2764    1.5639 C.ar      1 <0>         0.0848
      8 F1          2.8049   -0.0997    2.5769 F         1 <0>        -0.1440
      9 C8         -1.2619   -0.7616    0.0095 C.2       1 <0>         0.4087
     10 C9         -1.2427   -2.1363   -0.1021 C.2       1 <0>        -0.4920
     11 C10        -2.4372   -3.0549   -0.2171 C.3       1 <0>         0.2657
     12 H1         -3.0449   -2.8312   -1.1063 H         1 <0>         0.0942
     13 N1         -1.9098   -4.4192   -0.3110 N.am      1 <0>        -0.4989
     14 C11        -0.5679   -4.3739   -0.2624 C.2       1 <0>         0.4767
     15 O1          0.1632   -5.3415   -0.3177 O.2       1 <0>        -0.4521
     16 C12        -0.1085   -2.9647   -0.1381 C.2       1 <0>         0.3819
     17 O2          1.0495   -2.5937   -0.0754 O.3       1 <0>        -0.4759
     18 C13        -2.6703   -5.5672   -0.4302 C.2       1 <0>         0.3658
     19 N2         -2.2639   -6.8240   -0.5247 N.2       1 <0>        -0.5488
     20 C14        -3.1126   -7.8123   -0.6280 C.2       1 <0>         0.2142
     21 C15        -4.4665   -7.5028   -0.6485 C.2       1 <0>        -0.3246
     22 S1         -4.3982   -5.7230   -0.5013 S.3       1 <0>         0.1481
     23 C16        -5.6249   -8.3869   -0.7604 C.2       1 <0>         0.5712
     24 O3         -5.4657   -9.5895   -0.8533 O.2       1 <0>        -0.5030
     25 O4         -6.8710   -7.8694   -0.7606 O.3       1 <0>        -0.3487
     26 C17        -7.9566   -8.7918   -0.8731 C.3       1 <0>         0.0337
     27 C18        -2.6381   -9.2392   -0.7282 C.3       1 <0>        -0.1084
     28 C19        -3.3100   -2.9218    1.0042 C.ar      1 <0>        -0.0798
     29 C20        -2.9723   -3.5834    2.1701 C.ar      1 <0>        -0.0944
     30 C21        -3.7693   -3.4573    3.2922 C.ar      1 <0>        -0.1127
     31 C22        -4.9114   -2.6777    3.2451 C.ar      1 <0>        -0.0332
     32 C23        -5.2518   -2.0204    2.0763 C.ar      1 <0>        -0.1100
     33 C24        -4.4510   -2.1428    0.9565 C.ar      1 <0>        -0.0618
     34 Cl1        -5.9164   -2.5240    4.6522 Cl        1 <0>        -0.0831
     35 O5         -2.4253   -0.0898   -0.1233 O.2       1 <0>        -0.6141
     36 H2          3.7153    2.9326    0.3118 H         1 <0>         0.0676
     37 H3          4.4698    1.4293    0.9426 H         1 <0>         0.0687
     38 H4          3.5867    2.5270    2.0570 H         1 <0>         0.0675
     39 H5          1.7848    2.5957   -0.8859 H         1 <0>         0.1279
     40 H6         -0.3013    1.3756   -1.3347 H         1 <0>         0.1294
     41 H7          0.5560   -1.2591    1.9448 H         1 <0>         0.1301
     42 H8         -8.9086   -8.2409   -0.8605 H         1 <0>         0.1040
     43 H9         -7.9289   -9.4954   -0.0280 H         1 <0>         0.0623
     44 H10        -7.8679   -9.3491   -1.8173 H         1 <0>         0.0622
     45 H11        -3.5066   -9.9097   -0.8067 H         1 <0>         0.1057
     46 H12        -2.0565   -9.4961    0.1694 H         1 <0>         0.0821
     47 H13        -2.0049   -9.3532   -1.6204 H         1 <0>         0.0823
     48 H14        -2.0831   -4.1954    2.2054 H         1 <0>         0.1191
     49 H15        -3.5031   -3.9706    4.2043 H         1 <0>         0.1284
     50 H16        -6.1434   -1.4120    2.0388 H         1 <0>         0.1320
     51 H17        -4.7164   -1.6294    0.0442 H         1 <0>         0.1390
@<TRIPOS>BOND
     1    1    2 1
     2    1   36 1
     3    1   37 1
     4    1   38 1
     5    2    7 ar
     6    2    3 ar
     7    3    4 ar
     8    3   39 1
     9    4    5 ar
    10    4   40 1
    11    5    6 ar
    12    5    9 1
    13    6    7 ar
    14    6   41 1
    15    7    8 1
    16    9   10 1
    17    9   35 2
    18   10   16 2
    19   10   11 1
    20   11   12 1
    21   11   13 1
    22   11   28 1
    23   13   14 am
    24   13   18 1
    25   14   15 2
    26   14   16 1
    27   16   17 1
    28   18   22 1
    29   18   19 2
    30   19   20 1
    31   20   21 2
    32   20   27 1
    33   21   22 1
    34   21   23 1
    35   23   24 2
    36   23   25 1
    37   25   26 1
    38   26   42 1
    39   26   43 1
    40   26   44 1
    41   27   45 1
    42   27   46 1
    43   27   47 1
    44   28   33 ar
    45   28   29 ar
    46   29   30 ar
    47   29   48 1
    48   30   31 ar
    49   30   49 1
    50   31   32 ar
    51   31   34 1
    52   32   33 ar
    53   32   50 1
    54   33   51 1
@<TRIPOS>MOLECULE
ZINC39835303
   46    50     0     0     0
SMALL
USER_CHARGES

@<TRIPOS>ATOM
      1 C1          0.1448    1.4258    0.1167 C.ar      1 <0>        -0.1303
      2 C2          1.3431    2.1155    0.1027 C.ar      1 <0>        -0.0830
      3 C3          2.5388    1.4237    0.0702 C.ar      1 <0>        -0.1552
      4 C4          2.5366    0.0390    0.0516 C.ar      1 <0>         0.1191
      5 C5          1.3362   -0.6505    0.0656 C.ar      1 <0>        -0.1129
      6 C6          0.1414    0.0437    0.0982 C.ar      1 <0>        -0.0700
      7 C7          1.3322   -2.1574    0.0449 C.3       1 <0>        -0.0727
      8 S1          1.3641   -2.7855    1.7464 S.3       1 <0>         0.0464
      9 C8          1.3561   -4.5370    1.5544 C.2       1 <0>        -0.0310
     10 N1          1.3386   -5.2734    0.4523 N.2       1 <0>        -0.2476
     11 N2          1.3357   -6.5340    0.4928 N.2       1 <0>        -0.3086
     12 C9          1.3500   -7.1989    1.6372 C.2       1 <0>         0.3246
     13 S2          1.3772   -5.8308    2.7920 S.3       1 <0>         0.0912
     14 N3          1.3489   -8.5684    1.8747 N.am      1 <0>        -0.4997
     15 C10         1.3373   -9.6223    0.8532 C.3       1 <0>         0.3128
     16 H1          2.2255   -9.5464    0.2260 H         1 <0>         0.1060
     17 C11         1.3410  -10.9341    1.6031 C.2       1 <0>        -0.4847
     18 C12         1.3536  -10.6294    2.9220 C.2       1 <0>         0.2789
     19 C13         1.3643   -9.1628    3.0815 C.2       1 <0>         0.5151
     20 O1          1.3821   -8.5775    4.1468 O.2       1 <0>        -0.4807
     21 O2          1.3603  -11.5283    3.9344 O.3       1 <0>        -0.6269
     22 C14         1.3326  -12.2780    1.0154 C.2       1 <0>         0.5477
     23 O3          0.3713  -13.0087    1.1795 O.2       1 <0>        -0.4434
     24 C15         2.4806  -12.7421    0.2307 C.2       1 <0>        -0.0658
     25 C16         2.5659  -13.9338   -0.4562 C.2       1 <0>        -0.1514
     26 C17         3.8328  -13.9585   -1.0573 C.2       1 <0>        -0.2271
     27 C18         4.4570  -12.8068   -0.7213 C.2       1 <0>        -0.0264
     28 O4          3.6396  -12.0760    0.0476 O.3       1 <0>        -0.1446
     29 C19         0.0950   -9.5107    0.0074 C.2       1 <0>        -0.1204
     30 C20        -0.0333   -9.6108   -1.3383 C.2       1 <0>        -0.1527
     31 C21        -1.2869   -9.4734   -1.9042 C.2       1 <0>        -0.1476
     32 C22        -2.3509   -9.2426   -1.0967 C.2       1 <0>        -0.1913
     33 S3         -1.5907   -9.2200    0.5185 S.3       1 <0>         0.0512
     34 F1          3.7050   -0.6385    0.0194 F         1 <0>        -0.1300
     35 H2         -0.7891    1.9673    0.1466 H         1 <0>         0.1334
     36 H3          1.3445    3.1954    0.1168 H         1 <0>         0.1345
     37 H4          3.4746    1.9626    0.0589 H         1 <0>         0.1385
     38 H5         -0.7951   -0.4940    0.1095 H         1 <0>         0.1384
     39 H6          0.4313   -2.5114   -0.4563 H         1 <0>         0.1119
     40 H7          2.2110   -2.5157   -0.4912 H         1 <0>         0.1087
     41 H8          1.8061  -14.6988   -0.5192 H         1 <0>         0.1545
     42 H9          4.2348  -14.7495   -1.6731 H         1 <0>         0.1498
     43 H10         5.4523  -12.5205   -1.0276 H         1 <0>         0.2030
     44 H11         0.8311   -9.7949   -1.9590 H         1 <0>         0.1302
     45 H12        -1.4166   -9.5485   -2.9737 H         1 <0>         0.1284
     46 H13        -3.3896   -9.1107   -1.3615 H         1 <0>         0.1800
@<TRIPOS>BOND
     1    1    6 ar
     2    1    2 ar
     3    1   35 1
     4    2    3 ar
     5    2   36 1
     6    3    4 ar
     7    3   37 1
     8    4    5 ar
     9    4   34 1
    10    5    6 ar
    11    5    7 1
    12    6   38 1
    13    7    8 1
    14    7   39 1
    15    7   40 1
    16    8    9 1
    17    9   13 1
    18    9   10 2
    19   10   11 1
    20   11   12 2
    21   12   13 1
    22   12   14 1
    23   14   19 am
    24   14   15 1
    25   15   16 1
    26   15   17 1
    27   15   29 1
    28   17   18 2
    29   17   22 1
    30   18   19 1
    31   18   21 1
    32   19   20 2
    33   22   23 2
    34   22   24 1
    35   24   28 1
    36   24   25 2
    37   25   26 1
    38   25   41 1
    39   26   27 2
    40   26   42 1
    41   27   28 1
    42   27   43 1
    43   29   33 1
    44   29   30 2
    45   30   31 1
    46   30   44 1
    47   31   32 2
    48   31   45 1
    49   32   33 1
    50   32   46 1
@<TRIPOS>MOLECULE
ZINC59087297
   56    59     0     0     0
SMALL
USER_CHARGES

@<TRIPOS>ATOM
      1 C1          0.7041   -0.9737   -0.4917 C.3       1 <0>        -0.1590
      2 C2          0.5724   -1.8944    0.7232 C.3       1 <0>         0.1040
      3 N1         -0.8079   -2.3750    0.8242 N.am      1 <0>        -0.5879
      4 C3         -1.7133   -1.6690    1.5359 C.2       1 <0>         0.5641
      5 O1         -1.4021   -0.6350    2.0977 O.2       1 <0>        -0.5374
      6 C4         -3.0889   -2.1895    1.6105 C.2       1 <0>        -0.2762
      7 C5         -4.0779   -1.5177    2.3245 C.2       1 <0>         0.1167
      8 C6         -5.4232   -1.9146    2.2071 C.2       1 <0>        -0.2012
      9 C7         -6.1184   -2.1676    1.0350 C.2       1 <0>         0.2185
     10 N2         -7.3810   -2.5226    1.3291 N.pl3     1 <0>        -0.4591
     11 C8         -7.5854   -2.5232    2.6954 C.ar      1 <0>         0.0898
     12 C9         -6.3789   -2.1521    3.3086 C.ar      1 <0>        -0.0483
     13 C10        -6.2932   -2.0748    4.6946 C.ar      1 <0>        -0.0506
     14 C11        -7.3998   -2.3684    5.4647 C.ar      1 <0>        -0.1046
     15 C12        -8.5925   -2.7390    4.8610 C.ar      1 <0>        -0.0926
     16 C13        -8.6916   -2.8108    3.4879 C.ar      1 <0>        -0.1097
     17 Br1        -7.2900   -2.2659    7.3498 Br        1 <0>        -0.0626
     18 C14        -8.4023   -2.8625    0.3352 C.3       1 <0>         0.1100
     19 C15        -9.2419   -1.6223    0.0221 C.3       1 <0>         0.0443
     20 O2        -10.2381   -1.9538   -0.9473 O.3       1 <0>        -0.3105
     21 C16       -11.0745   -0.9566   -1.3383 C.ar      1 <0>         0.1312
     22 C17       -10.9354    0.3164   -0.8042 C.ar      1 <0>        -0.2081
     23 C18       -11.7865    1.3284   -1.2035 C.ar      1 <0>        -0.0758
     24 C19       -12.7764    1.0736   -2.1349 C.ar      1 <0>        -0.1266
     25 C20       -12.9173   -0.1940   -2.6682 C.ar      1 <0>        -0.0490
     26 C21       -12.0649   -1.2083   -2.2763 C.ar      1 <0>        -0.1485
     27 C22       -13.9975   -0.4682   -3.6826 C.3       1 <0>        -0.1181
     28 C23       -13.7036    2.1796   -2.5688 C.3       1 <0>        -0.1122
     29 C24        -3.3697   -3.4052    0.9245 C.2       1 <0>         0.4975
     30 O3         -4.6108   -3.9356    0.9528 O.3       1 <0>        -0.6415
     31 N3         -2.3990   -4.0074    0.2593 N.2       1 <0>        -0.6728
     32 C25        -1.1651   -3.5114    0.2041 C.2       1 <0>         0.6683
     33 O4         -0.3216   -4.1175   -0.4328 O.2       1 <0>        -0.5770
     34 H1          1.7311   -0.6161   -0.5669 H         1 <0>         0.0630
     35 H2          0.4443   -1.5251   -1.3953 H         1 <0>         0.0590
     36 H3          0.0309   -0.1240   -0.3783 H         1 <0>         0.0529
     37 H4          1.2456   -2.7441    0.6098 H         1 <0>         0.0881
     38 H5          0.8322   -1.3430    1.6268 H         1 <0>         0.0787
     39 H6         -3.8126   -0.6921    2.9684 H         1 <0>         0.1298
     40 H7         -5.7088   -2.0909    0.0386 H         1 <0>         0.1764
     41 H8         -5.3650   -1.7868    5.1657 H         1 <0>         0.1315
     42 H9         -9.4533   -2.9669    5.4721 H         1 <0>         0.1313
     43 H10        -9.6245   -3.1020    3.0281 H         1 <0>         0.1247
     44 H11        -7.9193   -3.2140   -0.5765 H         1 <0>         0.1101
     45 H12        -9.0471   -3.6474    0.7306 H         1 <0>         0.1015
     46 H13        -9.7249   -1.2708    0.9338 H         1 <0>         0.0704
     47 H14        -8.5971   -0.8374   -0.3733 H         1 <0>         0.0710
     48 H15       -10.1627    0.5158   -0.0765 H         1 <0>         0.1276
     49 H16       -11.6789    2.3194   -0.7878 H         1 <0>         0.1246
     50 H17       -12.1725   -2.1973   -2.6965 H         1 <0>         0.1311
     51 H18       -13.6091   -0.2877   -4.6849 H         1 <0>         0.0735
     52 H19       -14.3192   -1.5064   -3.5991 H         1 <0>         0.0677
     53 H20       -14.8456    0.1909   -3.4974 H         1 <0>         0.0725
     54 H21       -13.2780    2.6932   -3.4309 H         1 <0>         0.0676
     55 H22       -14.6715    1.7573   -2.8388 H         1 <0>         0.0685
     56 H23       -13.8318    2.8882   -1.7506 H         1 <0>         0.0632
@<TRIPOS>BOND
     1    1    2 1
     2    1   34 1
     3    1   35 1
     4    1   36 1
     5    2    3 1
     6    2   37 1
     7    2   38 1
     8    3   32 am
     9    3    4 am
    10    4    5 2
    11    4    6 1
    12    6    7 2
    13    6   29 1
    14    7    8 1
    15    7   39 1
    16    8   12 1
    17    8    9 2
    18    9   10 1
    19    9   40 1
    20   10   11 1
    21   10   18 1
    22   11   16 ar
    23   11   12 ar
    24   12   13 ar
    25   13   14 ar
    26   13   41 1
    27   14   15 ar
    28   14   17 1
    29   15   16 ar
    30   15   42 1
    31   16   43 1
    32   18   19 1
    33   18   44 1
    34   18   45 1
    35   19   20 1
    36   19   46 1
    37   19   47 1
    38   20   21 1
    39   21   26 ar
    40   21   22 ar
    41   22   23 ar
    42   22   48 1
    43   23   24 ar
    44   23   49 1
    45   24   25 ar
    46   24   28 1
    47   25   26 ar
    48   25   27 1
    49   26   50 1
    50   27   51 1
    51   27   52 1
    52   27   53 1
    53   28   54 1
    54   28   55 1
    55   28   56 1
    56   29   30 1
    57   29   31 2
    58   31   32 1
    59   32   33 2
@<TRIPOS>MOLECULE
ZINC63547205
   40    43     0     0     0
SMALL
USER_CHARGES

@<TRIPOS>ATOM
      1 C1         -0.0751    1.4039    0.0360 C.3       1 <0>         0.0180
      2 O1         -0.0244   -0.0240    0.0557 O.3       1 <0>        -0.2627
      3 C2         -1.2111   -0.6829    0.0525 C.ar      1 <0>         0.1971
      4 C3         -2.4011    0.0271    0.0250 C.ar      1 <0>        -0.2190
      5 C4         -3.6085   -0.6442    0.0212 C.ar      1 <0>        -0.0238
      6 C5         -3.6404   -2.0301    0.0449 C.ar      1 <0>        -0.1409
      7 C6         -2.4663   -2.7522    0.0723 C.ar      1 <0>        -0.0067
      8 C7         -1.2382   -2.0850    0.0710 C.ar      1 <0>        -0.0961
      9 C8          0.0227   -2.8513    0.0947 C.2       1 <0>         0.3134
     10 N1          1.1845   -2.2100    0.1040 N.2       1 <0>        -0.4543
     11 C9          2.2906   -2.9179   -0.0510 C.2       1 <0>         0.2750
     12 N2          3.5295   -2.7116    0.3031 N.2       1 <0>        -0.2866
     13 N3          4.2336   -3.7815    0.3408 N.2       1 <0>        -0.2685
     14 C10         3.6229   -4.8459   -0.1426 C.2       1 <0>         0.1348
     15 C11         2.3109   -4.3167   -0.6504 C.3       1 <0>        -0.1500
     16 H1          2.3299   -4.2559   -1.7386 H         1 <0>         0.1656
     17 C12         1.0935   -5.0497   -0.1862 C.2       1 <0>        -0.0211
     18 C13        -0.0152   -4.3176    0.1141 C.2       1 <0>        -0.2296
     19 C14         1.0938   -6.5071   -0.0533 C.2       1 <0>         0.5262
     20 O2          0.7567   -7.2082   -0.9989 O.co2     1 <0>        -0.6681
     21 O3          1.4313   -7.0255    1.0034 O.co2     1 <0>        -0.6512
     22 C15         4.1122   -6.2297   -0.1768 C.ar      1 <0>        -0.0010
     23 C16         3.7016   -7.0966   -1.1974 C.ar      1 <0>        -0.0531
     24 C17         4.1657   -8.3937   -1.2226 C.ar      1 <0>        -0.0819
     25 C18         5.0360   -8.8413   -0.2416 C.ar      1 <0>        -0.0737
     26 C19         5.4465   -7.9902    0.7718 C.ar      1 <0>        -0.0984
     27 C20         4.9965   -6.6883    0.8077 C.ar      1 <0>        -0.0666
     28 Br1         5.6662  -10.6237   -0.2856 Br        1 <0>        -0.0633
     29 Br2        -5.3016   -2.9337    0.0400 Br        1 <0>        -0.0449
     30 H2          0.9390    1.8036    0.0409 H         1 <0>         0.1043
     31 H3         -0.5924    1.7367   -0.8639 H         1 <0>         0.0558
     32 H4         -0.6105    1.7607    0.9158 H         1 <0>         0.0568
     33 H5         -2.3845    1.1068    0.0068 H         1 <0>         0.1431
     34 H6         -4.5329   -0.0862    0.0001 H         1 <0>         0.1388
     35 H7         -2.4954   -3.8316    0.0910 H         1 <0>         0.1523
     36 H8         -0.9360   -4.8227    0.3660 H         1 <0>         0.1428
     37 H9          3.0228   -6.7495   -1.9623 H         1 <0>         0.1350
     38 H10         3.8502   -9.0635   -2.0089 H         1 <0>         0.1343
     39 H11         6.1247   -8.3468    1.5329 H         1 <0>         0.1333
     40 H12         5.3212   -6.0247    1.5955 H         1 <0>         0.1348
@<TRIPOS>BOND
     1    1    2 1
     2    1   30 1
     3    1   31 1
     4    1   32 1
     5    2    3 1
     6    3    8 ar
     7    3    4 ar
     8    4    5 ar
     9    4   33 1
    10    5    6 ar
    11    5   34 1
    12    6    7 ar
    13    6   29 1
    14    7    8 ar
    15    7   35 1
    16    8    9 1
    17    9   18 1
    18    9   10 2
    19   10   11 1
    20   11   15 1
    21   11   12 2
    22   12   13 1
    23   13   14 2
    24   14   15 1
    25   14   22 1
    26   15   16 1
    27   15   17 1
    28   17   18 2
    29   17   19 1
    30   18   36 1
    31   19   20 2
    32   19   21 1
    33   22   27 ar
    34   22   23 ar
    35   23   24 ar
    36   23   37 1
    37   24   25 ar
    38   24   38 1
    39   25   26 ar
    40   25   28 1
    41   26   27 ar
    42   26   39 1
    43   27   40 1
@<TRIPOS>MOLECULE
ZINC13271125
   43    45     0     0     0
SMALL
USER_CHARGES
(2R)-2-[3-[(2,4-dichlorophenyl)methylsulfanyl]-5-(2-thienyl)-1,2,4-triazol-4-yl]-3-methyl-butanoic acid
@<TRIPOS>ATOM
      1 C1         -0.0127    1.0858    0.0080 C.3       1 <0>        -0.1483
      2 C2         -0.7288    1.5792    1.2668 C.3       1 <0>        -0.0917
      3 C3         -2.1642    1.0497    1.2777 C.3       1 <0>        -0.1501
      4 C4          0.0111    1.0724    2.5063 C.3       1 <0>         0.0851
      5 H1          0.0259   -0.0175    2.5003 H         1 <0>         0.1008
      6 C5         -0.6942    1.5584    3.7462 C.2       1 <0>         0.4622
      7 O1         -1.6869    2.2402    3.6485 O.co2     1 <0>        -0.5962
      8 N1          1.3856    1.5795    2.4959 N.pl3     1 <0>        -0.4110
      9 C6          2.5463    0.8383    2.4865 C.2       1 <0>         0.2531
     10 N2          3.5471    1.6912    2.4769 N.2       1 <0>        -0.2640
     11 N3          3.0975    2.8950    2.4877 N.2       1 <0>        -0.2981
     12 C7          1.7840    2.8875    2.4996 C.2       1 <0>         0.1695
     13 S1          0.7313    4.3003    2.5166 S.3       1 <0>         0.0663
     14 C8          1.9728    5.6174    2.5129 C.3       1 <0>        -0.0962
     15 C9          1.2835    6.9575    2.5263 C.ar      1 <0>        -0.0565
     16 C10         0.9779    7.5654    3.7297 C.ar      1 <0>        -0.0732
     17 C11         0.3462    8.7945    3.7427 C.ar      1 <0>        -0.1030
     18 C12         0.0192    9.4174    2.5511 C.ar      1 <0>        -0.0216
     19 C13         0.3247    8.8097    1.3468 C.ar      1 <0>        -0.1030
     20 C14         0.9619    7.5816    1.3344 C.ar      1 <0>        -0.0108
     21 Cl1         1.3517    6.8211   -0.1767 Cl        1 <0>        -0.0452
     22 Cl2        -0.7748   10.9611    2.5677 Cl        1 <0>        -0.0606
     23 C15         2.6475   -0.6300    2.4841 C.2       1 <0>        -0.0772
     24 C16         3.7314   -1.4216    2.1994 C.2       1 <0>        -0.1197
     25 C17         3.5857   -2.7892    2.2633 C.2       1 <0>        -0.1563
     26 C18         2.3792   -3.3115    2.6044 C.2       1 <0>        -0.1859
     27 S2          1.3938   -1.8448    2.8585 S.3       1 <0>         0.1004
     28 H2          0.0021   -0.0041    0.0020 H         1 <0>         0.0526
     29 H3          1.0099    1.4631    0.0003 H         1 <0>         0.0454
     30 H4         -0.5399    1.4469   -0.8751 H         1 <0>         0.0602
     31 H5         -0.7436    2.6691    1.2728 H         1 <0>         0.0882
     32 H6         -2.1494   -0.0402    1.2717 H         1 <0>         0.0431
     33 H7         -2.6744    1.4012    2.1745 H         1 <0>         0.0979
     34 H8         -2.6914    1.4107    0.3946 H         1 <0>         0.0517
     35 H9          2.6037    5.5245    3.3970 H         1 <0>         0.1114
     36 H10         2.5881    5.5342    1.6171 H         1 <0>         0.1114
     37 H11         1.2332    7.0798    4.6600 H         1 <0>         0.1494
     38 H12         0.1080    9.2692    4.6831 H         1 <0>         0.1436
     39 H13         0.0700    9.2956    0.4166 H         1 <0>         0.1458
     40 H14         4.6799   -0.9807    1.9303 H         1 <0>         0.1427
     41 H15         4.4205   -3.4386    2.0450 H         1 <0>         0.1366
     42 H16         2.0913   -4.3478    2.7017 H         1 <0>         0.1872
     43 O2         -0.2197    1.2339    4.9592 O.co2     1 <0>        -0.7358
@<TRIPOS>BOND
     1    1    2 1
     2    1   28 1
     3    1   29 1
     4    1   30 1
     5    2    3 1
     6    2    4 1
     7    2   31 1
     8    3   32 1
     9    3   33 1
    10    3   34 1
    11    4    5 1
    12    4    6 1
    13    4    8 1
    14    6    7 2
    15    6   43 1
    16    8   12 1
    17    8    9 1
    18    9   10 2
    19    9   23 1
    20   10   11 1
    21   11   12 2
    22   12   13 1
    23   13   14 1
    24   14   15 1
    25   14   35 1
    26   14   36 1
    27   15   20 ar
    28   15   16 ar
    29   16   17 ar
    30   16   37 1
    31   17   18 ar
    32   17   38 1
    33   18   19 ar
    34   18   22 1
    35   19   20 ar
    36   19   39 1
    37   20   21 1
    38   23   27 1
    39   23   24 2
    40   24   25 1
    41   24   40 1
    42   25   26 2
    43   25   41 1
    44   26   27 1
    45   26   42 1
@<TRIPOS>MOLECULE
ZINC33529601
   60    63     0     0     0
SMALL
USER_CHARGES
(4Z,5S)-5-(4-dimethylaminophenyl)-4-[hydroxy(p-tolyl)methylene]-1-phenethyl-pyrrolidine-2,3-dione
@<TRIPOS>ATOM
      1 C1         10.7809    4.4179   -1.9823 C.3       1 <0>        -0.1102
      2 C2         10.0151    3.1269   -1.8481 C.ar      1 <0>        -0.0948
      3 C3         10.5173    2.1075   -1.0578 C.ar      1 <0>        -0.1239
      4 C4          9.8226    0.9234   -0.9300 C.ar      1 <0>        -0.0817
      5 C5          8.6072    0.7541   -1.6009 C.ar      1 <0>        -0.0646
      6 C6          8.1088    1.7870   -2.4013 C.ar      1 <0>        -0.0954
      7 C7          8.8129    2.9670   -2.5153 C.ar      1 <0>        -0.1289
      8 C8          7.8587   -0.5084   -1.4700 C.2       1 <0>         0.3829
      9 C9          6.5111   -0.4840   -1.1758 C.2       1 <0>        -0.4958
     10 C10         5.6793    0.7290   -0.8286 C.3       1 <0>         0.2612
     11 H1          5.6767    1.4735   -1.6384 H         1 <0>         0.0644
     12 N1          4.3138    0.2495   -0.5968 N.am      1 <0>        -0.5991
     13 C11         4.2804   -1.0811   -0.7799 C.2       1 <0>         0.4752
     14 O1          3.2904   -1.7744   -0.6661 O.2       1 <0>        -0.5352
     15 C12         5.6344   -1.5808   -1.1435 C.2       1 <0>         0.3731
     16 O2          5.9305   -2.7392   -1.3731 O.3       1 <0>        -0.4812
     17 C13         3.1688    1.0868   -0.2308 C.3       1 <0>         0.1418
     18 C14         3.0709    1.1791    1.2933 C.3       1 <0>        -0.1070
     19 C15         1.8931    2.0405    1.6698 C.ar      1 <0>        -0.0693
     20 C16         0.6490    1.4672    1.8559 C.ar      1 <0>        -0.1156
     21 C17        -0.4325    2.2581    2.1961 C.ar      1 <0>        -0.1200
     22 C18        -0.2679    3.6207    2.3600 C.ar      1 <0>        -0.1302
     23 C19         0.9762    4.1939    2.1744 C.ar      1 <0>        -0.1208
     24 C20         2.0567    3.4038    1.8294 C.ar      1 <0>        -0.1137
     25 C21         6.2166    1.3796    0.4201 C.ar      1 <0>        -0.1213
     26 C22         6.1266    0.7227    1.6336 C.ar      1 <0>        -0.0448
     27 C23         6.6231    1.3135    2.7789 C.ar      1 <0>        -0.1954
     28 C24         7.2031    2.5740    2.7128 C.ar      1 <0>         0.2033
     29 C25         7.2868    3.2335    1.4931 C.ar      1 <0>        -0.1911
     30 C26         6.7935    2.6344    0.3507 C.ar      1 <0>        -0.0607
     31 N2          7.7007    3.1771    3.8702 N.pl3     1 <0>        -0.6423
     32 C27         8.3117    4.5067    3.7986 C.3       1 <0>         0.0994
     33 C28         7.6116    2.4801    5.1557 C.3       1 <0>         0.0978
     34 O3          8.4917   -1.6889   -1.6380 O.2       1 <0>        -0.6161
     35 H2         11.7033    4.3607   -1.3858 H         1 <0>         0.0592
     36 H3         10.1610    5.2513   -1.6200 H         1 <0>         0.0637
     37 H4         11.0373    4.5840   -3.0390 H         1 <0>         0.0634
     38 H5         11.4560    2.2398   -0.5404 H         1 <0>         0.1132
     39 H6         10.2157    0.1289   -0.3131 H         1 <0>         0.1188
     40 H7          7.1732    1.6619   -2.9260 H         1 <0>         0.1229
     41 H8          8.4274    3.7669   -3.1300 H         1 <0>         0.1155
     42 H9          3.3021    2.0945   -0.6513 H         1 <0>         0.0759
     43 H10         2.2461    0.6415   -0.6312 H         1 <0>         0.0776
     44 H11         2.9375    0.1714    1.7138 H         1 <0>         0.0744
     45 H12         3.9936    1.6243    1.6937 H         1 <0>         0.0887
     46 H13         0.5212    0.4021    1.7312 H         1 <0>         0.1222
     47 H14        -1.4054    1.8108    2.3372 H         1 <0>         0.1186
     48 H15        -1.1120    4.2380    2.6299 H         1 <0>         0.1168
     49 H16         1.1041    5.2591    2.2991 H         1 <0>         0.1180
     50 H17         3.0288    3.8516    1.6844 H         1 <0>         0.1212
     51 H18         5.6712   -0.2553    1.6851 H         1 <0>         0.1120
     52 H19         6.5564    0.7981    3.7256 H         1 <0>         0.1125
     53 H20         7.7375    4.2134    1.4381 H         1 <0>         0.1122
     54 H21         6.8585    3.1465   -0.5980 H         1 <0>         0.1167
     55 H22         8.6415    4.8132    4.8022 H         1 <0>         0.0669
     56 H23         7.5743    5.2291    3.4185 H         1 <0>         0.0495
     57 H24         9.1780    4.4761    3.1213 H         1 <0>         0.0509
     58 H25         8.0523    3.1076    5.9443 H         1 <0>         0.0674
     59 H26         8.1596    1.5282    5.0954 H         1 <0>         0.0514
     60 H27         6.5560    2.2811    5.3925 H         1 <0>         0.0503
@<TRIPOS>BOND
     1    1    2 1
     2    1   35 1
     3    1   36 1
     4    1   37 1
     5    2    7 ar
     6    2    3 ar
     7    3    4 ar
     8    3   38 1
     9    4    5 ar
    10    4   39 1
    11    5    6 ar
    12    5    8 1
    13    6    7 ar
    14    6   40 1
    15    7   41 1
    16    8    9 1
    17    8   34 2
    18    9   15 2
    19    9   10 1
    20   10   11 1
    21   10   12 1
    22   10   25 1
    23   12   13 am
    24   12   17 1
    25   13   14 2
    26   13   15 1
    27   15   16 1
    28   17   18 1
    29   17   42 1
    30   17   43 1
    31   18   19 1
    32   18   44 1
    33   18   45 1
    34   19   24 ar
    35   19   20 ar
    36   20   21 ar
    37   20   46 1
    38   21   22 ar
    39   21   47 1
    40   22   23 ar
    41   22   48 1
    42   23   24 ar
    43   23   49 1
    44   24   50 1
    45   25   30 ar
    46   25   26 ar
    47   26   27 ar
    48   26   51 1
    49   27   28 ar
    50   27   52 1
    51   28   29 ar
    52   28   31 1
    53   29   30 ar
    54   29   53 1
    55   30   54 1
    56   31   32 1
    57   31   33 1
    58   32   55 1
    59   32   56 1
    60   32   57 1
    61   33   58 1
    62   33   59 1
    63   33   60 1
@<TRIPOS>MOLECULE
ZINC17014673
   53    56     0     0     0
SMALL
USER_CHARGES

@<TRIPOS>ATOM
      1 C1          0.0019    1.5030    0.0068 C.3       1 <0>        -0.1174
      2 C2          0.0118   -0.0040    0.0003 C.ar      1 <0>        -0.0828
      3 C3         -0.0889   -0.6908   -1.1953 C.ar      1 <0>        -0.1280
      4 C4         -0.0798   -2.0729   -1.2012 C.ar      1 <0>        -0.1237
      5 C5          0.0303   -2.7686   -0.0115 C.ar      1 <0>        -0.1262
      6 C6          0.1318   -2.0819    1.1837 C.ar      1 <0>        -0.0969
      7 C7          0.1271   -0.6994    1.1892 C.ar      1 <0>        -0.0695
      8 C8          0.2431    0.0493    2.4919 C.3       1 <0>         0.0562
      9 H1          0.1206    1.1172    2.3112 H         1 <0>         0.0977
     10 C9          1.6182   -0.2111    3.1120 C.3       1 <0>        -0.1137
     11 H2          2.3884   -0.0927    2.3499 H         1 <0>         0.1239
     12 C10         1.6666   -1.6120    3.6603 C.2       1 <0>         0.4801
     13 O1          2.8220   -2.2996    3.6124 O.3       1 <0>        -0.6317
     14 N1          0.6136   -2.1704    4.1788 N.2       1 <0>        -0.6563
     15 C11        -0.5744   -1.5241    4.2473 C.2       1 <0>         0.2418
     16 C12        -0.8247   -0.4273    3.4452 C.2       1 <0>        -0.2521
     17 C13        -2.0835    0.2516    3.5170 C.1       1 <0>         0.2958
     18 N2         -3.0821    0.7902    3.5739 N.1       1 <0>        -0.4906
     19 S1         -1.8121   -2.0861    5.3684 S.3       1 <0>        -0.0956
     20 C14        -1.0485   -3.5145    6.1851 C.3       1 <0>        -0.0567
     21 C15        -2.0148   -4.0982    7.1835 C.ar      1 <0>        -0.0517
     22 C16        -2.0238   -3.6508    8.4691 C.ar      1 <0>        -0.1022
     23 C17        -2.9098   -4.1783    9.4061 C.ar      1 <0>        -0.1115
     24 C18        -3.7919   -5.1568    9.0632 C.ar      1 <0>        -0.1097
     25 C19        -3.8122   -5.6440    7.7455 C.ar      1 <0>        -0.0511
     26 C20        -2.9150   -5.1029    6.7907 C.ar      1 <0>        -0.0381
     27 C21        -2.9394   -5.5862    5.4712 C.ar      1 <0>        -0.0951
     28 C22        -3.8253   -6.5602    5.1271 C.ar      1 <0>        -0.1198
     29 C23        -4.7119   -7.0877    6.0644 C.ar      1 <0>        -0.1152
     30 C24        -4.7081   -6.6538    7.3543 C.ar      1 <0>        -0.1122
     31 C25         1.8602    0.7727    4.2276 C.2       1 <0>         0.4787
     32 O2          1.0197    1.5973    4.4988 O.2       1 <0>        -0.4965
     33 O3          3.0095    0.7330    4.9198 O.3       1 <0>        -0.3425
     34 C26         3.1717    1.6955    5.9636 C.3       1 <0>         0.0340
     35 H3          1.0271    1.8730    0.0194 H         1 <0>         0.0686
     36 H4         -0.5047    1.8668   -0.8871 H         1 <0>         0.0625
     37 H5         -0.5238    1.8591    0.8927 H         1 <0>         0.0698
     38 H6         -0.1749   -0.1474   -2.1247 H         1 <0>         0.1157
     39 H7         -0.1591   -2.6094   -2.1352 H         1 <0>         0.1148
     40 H8          0.0367   -3.8485   -0.0161 H         1 <0>         0.1167
     41 H9          0.2175   -2.6254    2.1130 H         1 <0>         0.1407
     42 H10        -0.7975   -4.2684    5.4389 H         1 <0>         0.1048
     43 H11        -0.1418   -3.1968    6.7000 H         1 <0>         0.1016
     44 H12        -1.3336   -2.8755    8.7673 H         1 <0>         0.1261
     45 H13        -2.8963   -3.8056   10.4196 H         1 <0>         0.1233
     46 H14        -4.4724   -5.5568    9.8003 H         1 <0>         0.1248
     47 H15        -2.2588   -5.1864    4.7340 H         1 <0>         0.1326
     48 H16        -3.8419   -6.9298    4.1125 H         1 <0>         0.1226
     49 H17        -5.4052   -7.8598    5.7650 H         1 <0>         0.1201
     50 H18        -5.4003   -7.0723    8.0699 H         1 <0>         0.1239
     51 H19         4.1411    1.5534    6.4414 H         1 <0>         0.0972
     52 H20         3.1175    2.6998    5.5435 H         1 <0>         0.0560
     53 H21         2.3804    1.5673    6.7022 H         1 <0>         0.0569
@<TRIPOS>BOND
     1    1    2 1
     2    1   35 1
     3    1   36 1
     4    1   37 1
     5    2    7 ar
     6    2    3 ar
     7    3    4 ar
     8    3   38 1
     9    4    5 ar
    10    4   39 1
    11    5    6 ar
    12    5   40 1
    13    6    7 ar
    14    6   41 1
    15    7    8 1
    16    8    9 1
    17    8   16 1
    18    8   10 1
    19   10   11 1
    20   10   12 1
    21   10   31 1
    22   12   13 1
    23   12   14 2
    24   14   15 1
    25   15   16 2
    26   15   19 1
    27   16   17 1
    28   17   18 3
    29   19   20 1
    30   20   21 1
    31   20   42 1
    32   20   43 1
    33   21   26 ar
    34   21   22 ar
    35   22   23 ar
    36   22   44 1
    37   23   24 ar
    38   23   45 1
    39   24   25 ar
    40   24   46 1
    41   25   30 ar
    42   25   26 ar
    43   26   27 ar
    44   27   28 ar
    45   27   47 1
    46   28   29 ar
    47   28   48 1
    48   29   30 ar
    49   29   49 1
    50   30   50 1
    51   31   32 2
    52   31   33 1
    53   33   34 1
    54   34   51 1
    55   34   52 1
    56   34   53 1
@<TRIPOS>MOLECULE
ZINC40077180
   45    47     0     0     0
SMALL
USER_CHARGES

@<TRIPOS>ATOM
      1 C1         -0.8157    2.1116   -0.2593 C.3       1 <0>        -0.1505
      2 C2         -0.5456    0.6072   -0.1900 C.3       1 <0>        -0.1203
      3 C3         -1.8754   -0.1481   -0.1431 C.3       1 <0>        -0.1380
      4 C4         -1.6052   -1.6524   -0.0738 C.3       1 <0>         0.1348
      5 N1         -2.8785   -2.3756   -0.0289 N.am      1 <0>        -0.6127
      6 C5         -3.6222   -2.7405    1.1826 C.3       1 <0>         0.2594
      7 H1         -3.9016   -1.8435    1.7352 H         1 <0>         0.0808
      8 C6         -4.8602   -3.4686    0.7138 C.2       1 <0>        -0.5029
      9 C7         -4.8049   -3.5027   -0.6383 C.2       1 <0>         0.2584
     10 C8         -3.5758   -2.8177   -1.0912 C.2       1 <0>         0.5109
     11 O1         -3.2431   -2.6769   -2.2512 O.2       1 <0>        -0.5339
     12 O2         -5.7298   -4.0694   -1.4467 O.3       1 <0>        -0.6571
     13 C9         -5.9174   -4.0303    1.5600 C.2       1 <0>         0.5177
     14 O3         -5.7291   -5.0739    2.1564 O.2       1 <0>        -0.4709
     15 C10        -7.2120   -3.3287    1.6887 C.ar      1 <0>        -0.1151
     16 C11        -7.4695   -2.1865    0.9269 C.ar      1 <0>        -0.0433
     17 C12        -8.6793   -1.5369    1.0512 C.ar      1 <0>        -0.1095
     18 C13        -9.6381   -2.0144    1.9295 C.ar      1 <0>        -0.0749
     19 C14        -9.3887   -3.1462    2.6879 C.ar      1 <0>        -0.1115
     20 C15        -8.1853   -3.8085    2.5683 C.ar      1 <0>        -0.0703
     21 Br1       -11.2943   -1.1169    2.0941 Br        1 <0>        -0.0649
     22 C16        -2.7859   -3.6442    2.0514 C.ar      1 <0>        -0.0363
     23 C17        -1.8136   -4.4449    1.4818 C.ar      1 <0>        -0.0992
     24 C18        -1.0461   -5.2735    2.2786 C.ar      1 <0>        -0.1050
     25 C19        -1.2505   -5.3018    3.6458 C.ar      1 <0>        -0.1273
     26 C20        -2.2222   -4.5017    4.2162 C.ar      1 <0>        -0.0906
     27 C21        -2.9870   -3.6683    3.4196 C.ar      1 <0>        -0.0788
     28 Br2        -4.3121   -2.5680    4.2002 Br        1 <0>        -0.0548
     29 H2          0.1316    2.6497   -0.2927 H         1 <0>         0.0511
     30 H3         -1.3930    2.3362   -1.1562 H         1 <0>         0.0537
     31 H4         -1.3783    2.4207    0.6217 H         1 <0>         0.0531
     32 H5          0.0169    0.2981   -1.0709 H         1 <0>         0.0619
     33 H6          0.0316    0.3827    0.7070 H         1 <0>         0.0609
     34 H7         -2.4379    0.1610    0.7379 H         1 <0>         0.0651
     35 H8         -2.4526    0.0765   -1.0400 H         1 <0>         0.0674
     36 H9         -1.0427   -1.9615   -0.9548 H         1 <0>         0.0778
     37 H10        -1.0280   -1.8770    0.8231 H         1 <0>         0.0735
     38 H11        -6.7224   -1.8128    0.2423 H         1 <0>         0.1428
     39 H12        -8.8796   -0.6537    0.4628 H         1 <0>         0.1320
     40 H13       -10.1402   -3.5134    3.3712 H         1 <0>         0.1305
     41 H14        -7.9939   -4.6937    3.1566 H         1 <0>         0.1369
     42 H15        -1.6539   -4.4234    0.4139 H         1 <0>         0.1252
     43 H16        -0.2869   -5.8992    1.8332 H         1 <0>         0.1230
     44 H17        -0.6508   -5.9496    4.2680 H         1 <0>         0.1246
     45 H18        -2.3818   -4.5239    5.2841 H         1 <0>         0.1265
@<TRIPOS>BOND
     1    1    2 1
     2    1   29 1
     3    1   30 1
     4    1   31 1
     5    2    3 1
     6    2   32 1
     7    2   33 1
     8    3    4 1
     9    3   34 1
    10    3   35 1
    11    4    5 1
    12    4   36 1
    13    4   37 1
    14    5   10 am
    15    5    6 1
    16    6    7 1
    17    6    8 1
    18    6   22 1
    19    8    9 2
    20    8   13 1
    21    9   10 1
    22    9   12 1
    23   10   11 2
    24   13   14 2
    25   13   15 1
    26   15   20 ar
    27   15   16 ar
    28   16   17 ar
    29   16   38 1
    30   17   18 ar
    31   17   39 1
    32   18   19 ar
    33   18   21 1
    34   19   20 ar
    35   19   40 1
    36   20   41 1
    37   22   27 ar
    38   22   23 ar
    39   23   24 ar
    40   23   42 1
    41   24   25 ar
    42   24   43 1
    43   25   26 ar
    44   25   44 1
    45   26   27 ar
    46   26   45 1
    47   27   28 1
@<TRIPOS>MOLECULE
ZINC13787376
   42    44     0     0     0
SMALL
USER_CHARGES

@<TRIPOS>ATOM
      1 C1         -0.0311    1.1975    1.6514 C.3       1 <0>         0.0255
      2 O1         -0.0077   -0.0719    0.9956 O.3       1 <0>        -0.3164
      3 C2         -1.2022   -0.6859    0.7987 C.ar      1 <0>         0.1713
      4 C3         -2.3756   -0.0710    1.2258 C.ar      1 <0>        -0.2372
      5 C4         -3.5832   -0.6784    1.0341 C.ar      1 <0>        -0.0244
      6 C5         -3.6478   -1.9284    0.4041 C.ar      1 <0>        -0.1306
      7 C6         -2.4638   -2.5517   -0.0289 C.ar      1 <0>         0.1863
      8 C7         -1.2479   -1.9210    0.1675 C.ar      1 <0>        -0.2482
      9 O2         -2.5140   -3.7621   -0.6402 O.3       1 <0>        -0.3032
     10 C8         -1.2703   -4.3328   -1.0522 C.3       1 <0>         0.0247
     11 C9         -4.9428   -2.5831    0.1979 C.2       1 <0>         0.0154
     12 C10        -6.0888   -1.8547    0.2523 C.2       1 <0>        -0.2083
     13 C11        -7.4984   -2.3048    0.2624 C.2       1 <0>         0.5356
     14 O3         -7.7966   -3.4881    0.2190 O.2       1 <0>        -0.5287
     15 N1         -8.4124   -1.3613    0.3211 N.2       1 <0>        -0.7110
     16 C12        -8.1029   -0.0753    0.3690 C.2       1 <0>         0.4521
     17 S1         -6.3171   -0.0830    0.3398 S.3       1 <0>        -0.1077
     18 N2         -8.9488    1.0023    0.4314 N.2       1 <0>        -0.5762
     19 C13       -10.3127    0.8077    0.6715 C.ar      1 <0>         0.2272
     20 C14       -10.7472   -0.3365    1.3286 C.ar      1 <0>        -0.1509
     21 C15       -12.0944   -0.5262    1.5644 C.ar      1 <0>        -0.0622
     22 C16       -13.0117    0.4225    1.1468 C.ar      1 <0>        -0.0917
     23 C17       -12.5817    1.5629    0.4917 C.ar      1 <0>        -0.0477
     24 C18       -11.2347    1.7606    0.2586 C.ar      1 <0>        -0.2140
     25 C19       -10.7666    3.0061   -0.4489 C.3       1 <0>         0.5267
     26 F1        -11.8700    3.8068   -0.7629 F         1 <0>        -0.1933
     27 F2         -9.8967    3.7170    0.3848 F         1 <0>        -0.1728
     28 F3        -10.0984    2.6507   -1.6256 F         1 <0>        -0.1750
     29 Cl1       -14.7048    0.1808    1.4449 Cl        1 <0>        -0.0888
     30 H1          0.9865    1.5768    1.7451 H         1 <0>         0.0994
     31 H2         -0.6274    1.8977    1.0664 H         1 <0>         0.0596
     32 H3         -0.4701    1.0863    2.6428 H         1 <0>         0.0585
     33 H4         -2.3304    0.8922    1.7122 H         1 <0>         0.1332
     34 H5         -4.4894   -0.1953    1.3685 H         1 <0>         0.1513
     35 H6         -0.3348   -2.3915   -0.1662 H         1 <0>         0.1381
     36 H7         -1.4525   -5.2976   -1.5256 H         1 <0>         0.1021
     37 H8         -0.7822   -3.6659   -1.7628 H         1 <0>         0.0576
     38 H9         -0.6278   -4.4703   -0.1825 H         1 <0>         0.0574
     39 H10        -4.9862   -3.6444    0.0026 H         1 <0>         0.1489
     40 H11       -10.0320   -1.0773    1.6544 H         1 <0>         0.1536
     41 H12       -12.4328   -1.4157    2.0749 H         1 <0>         0.1278
     42 H13       -13.2996    2.3012    0.1662 H         1 <0>         0.1364
@<TRIPOS>BOND
     1    1    2 1
     2    1   30 1
     3    1   31 1
     4    1   32 1
     5    2    3 1
     6    3    8 ar
     7    3    4 ar
     8    4    5 ar
     9    4   33 1
    10    5    6 ar
    11    5   34 1
    12    6    7 ar
    13    6   11 1
    14    7    8 ar
    15    7    9 1
    16    8   35 1
    17    9   10 1
    18   10   36 1
    19   10   37 1
    20   10   38 1
    21   11   12 2
    22   11   39 1
    23   12   17 1
    24   12   13 1
    25   13   14 2
    26   13   15 1
    27   15   16 2
    28   16   17 1
    29   16   18 1
    30   18   19 1
    31   19   24 ar
    32   19   20 ar
    33   20   21 ar
    34   20   40 1
    35   21   22 ar
    36   21   41 1
    37   22   23 ar
    38   22   29 1
    39   23   24 ar
    40   23   42 1
    41   24   25 1
    42   25   26 1
    43   25   27 1
    44   25   28 1
@<TRIPOS>MOLECULE
ZINC16909051
   40    42     0     0     0
SMALL
USER_CHARGES
(2R)-2-[3-[(E)-[3-(3-bromophenyl)-4-oxo-2-thioxo-thiazolidin-5-ylidene]methyl]phenoxy]propanoic acid
@<TRIPOS>ATOM
      1 C1         -3.7807   -1.1181   -1.9335 C.3       1 <0>        -0.1571
      2 C2         -2.9458   -1.0118   -0.6559 C.3       1 <0>         0.0368
      3 H1         -3.5909   -0.7337    0.1776 H         1 <0>         0.0744
      4 C3         -1.8799    0.0378   -0.8381 C.2       1 <0>         0.4731
      5 O1         -0.7137   -0.2783   -0.8335 O.co2     1 <0>        -0.6136
      6 O2         -2.3311   -2.2725   -0.3823 O.3       1 <0>        -0.2829
      7 C4         -3.0716   -3.1848    0.3006 C.ar      1 <0>         0.1327
      8 C5         -4.3995   -2.9128    0.6050 C.ar      1 <0>        -0.1802
      9 C6         -5.1610   -3.8382    1.2954 C.ar      1 <0>        -0.0896
     10 C7         -4.6047   -5.0347    1.6967 C.ar      1 <0>        -0.0903
     11 C8         -3.2666   -5.3167    1.4001 C.ar      1 <0>        -0.0824
     12 C9         -2.5006   -4.3811    0.6971 C.ar      1 <0>        -0.1159
     13 C10        -2.6684   -6.5903    1.8260 C.2       1 <0>         0.1249
     14 C11        -3.0169   -7.1387    3.0164 C.2       1 <0>        -0.2617
     15 C12        -3.8352   -6.5742    4.1105 C.2       1 <0>         0.5325
     16 O3         -4.3180   -5.4595    4.0387 O.2       1 <0>        -0.4239
     17 N1         -4.0161   -7.3430    5.1712 N.am      1 <0>        -0.4789
     18 C13        -3.4796   -8.5779    5.2464 C.2       1 <0>         0.2776
     19 S1         -3.5998   -9.7130    6.5223 S.2       1 <0>        -0.3313
     20 S2         -2.6197   -8.7459    3.6906 S.3       1 <0>         0.0834
     21 C14        -4.7832   -6.8636    6.2413 C.ar      1 <0>         0.1014
     22 C15        -4.3070   -5.8222    7.0270 C.ar      1 <0>        -0.0686
     23 C16        -5.0669   -5.3486    8.0785 C.ar      1 <0>        -0.1006
     24 C17        -6.2968   -5.9166    8.3557 C.ar      1 <0>        -0.0698
     25 C18        -6.7719   -6.9577    7.5783 C.ar      1 <0>        -0.0820
     26 C19        -6.0178   -7.4326    6.5217 C.ar      1 <0>        -0.0532
     27 Br1        -8.4539   -7.7322    7.9620 Br        1 <0>        -0.0353
     28 H2         -3.1357   -1.3963   -2.7670 H         1 <0>         0.0617
     29 H3         -4.5517   -1.8773   -1.8017 H         1 <0>         0.0502
     30 H4         -4.2496   -0.1565   -2.1422 H         1 <0>         0.0787
     31 H5         -4.8404   -1.9762    0.2974 H         1 <0>         0.1356
     32 H6         -6.1938   -3.6213    1.5247 H         1 <0>         0.1254
     33 H7         -5.2013   -5.7533    2.2390 H         1 <0>         0.1195
     34 H8         -1.4671   -4.5915    0.4648 H         1 <0>         0.1380
     35 H9         -1.9515   -7.0893    1.1908 H         1 <0>         0.1631
     36 H10        -3.3449   -5.3804    6.8136 H         1 <0>         0.1342
     37 H11        -4.6984   -4.5362    8.6872 H         1 <0>         0.1454
     38 H12        -6.8875   -5.5469    9.1809 H         1 <0>         0.1426
     39 H13        -6.3887   -8.2456    5.9151 H         1 <0>         0.1376
     40 O4         -2.2261    1.3238   -1.0057 O.co2     1 <0>        -0.7515
@<TRIPOS>BOND
     1    1    2 1
     2    1   28 1
     3    1   29 1
     4    1   30 1
     5    2    3 1
     6    2    4 1
     7    2    6 1
     8    4    5 2
     9    4   40 1
    10    6    7 1
    11    7   12 ar
    12    7    8 ar
    13    8    9 ar
    14    8   31 1
    15    9   10 ar
    16    9   32 1
    17   10   11 ar
    18   10   33 1
    19   11   12 ar
    20   11   13 1
    21   12   34 1
    22   13   14 2
    23   13   35 1
    24   14   20 1
    25   14   15 1
    26   15   16 2
    27   15   17 am
    28   17   18 1
    29   17   21 1
    30   18   19 2
    31   18   20 1
    32   21   26 ar
    33   21   22 ar
    34   22   23 ar
    35   22   36 1
    36   23   24 ar
    37   23   37 1
    38   24   25 ar
    39   24   38 1
    40   25   26 ar
    41   25   27 1
    42   26   39 1
@<TRIPOS>MOLECULE
ZINC33698035
   51    54     0     0     0
SMALL
USER_CHARGES
(4E,5R)-5-(3-bromophenyl)-4-[(2,5-dimethylphenyl)-hydroxy-methylene]-1-(4-pyridylmethyl)pyrrolidine-2,3-dione
@<TRIPOS>ATOM
      1 C1          6.8346   -2.6978   -1.9638 C.3       1 <0>        -0.1082
      2 C2          5.9050   -2.2663   -0.8589 C.ar      1 <0>        -0.1036
      3 C3          5.7318   -3.0737    0.2523 C.ar      1 <0>        -0.1225
      4 C4          4.8803   -2.6862    1.2722 C.ar      1 <0>        -0.1236
      5 C5          4.2018   -1.4884    1.1911 C.ar      1 <0>        -0.0459
      6 C6          4.3667   -0.6704    0.0691 C.ar      1 <0>        -0.0560
      7 C7          5.2290   -1.0690   -0.9575 C.ar      1 <0>        -0.0906
      8 C8          3.6403    0.6079   -0.0285 C.2       1 <0>         0.4032
      9 C9          2.2657    0.6130   -0.1459 C.2       1 <0>        -0.4978
     10 C10         1.3568    1.8200   -0.1216 C.3       1 <0>         0.2690
     11 H1          1.4390    2.3782    0.8227 H         1 <0>         0.0722
     12 N1         -0.0114    1.3187   -0.2805 N.am      1 <0>        -0.5972
     13 C11         0.0231   -0.0199   -0.3904 C.2       1 <0>         0.4779
     14 O1         -0.9500   -0.7315   -0.5330 O.2       1 <0>        -0.5269
     15 C12         1.4287   -0.5027   -0.3113 C.2       1 <0>         0.3730
     16 O2          1.7903   -1.6634   -0.3784 O.3       1 <0>        -0.4877
     17 C13        -1.2208    2.1446   -0.3194 C.3       1 <0>         0.1654
     18 C14        -1.7619    2.3091    1.0774 C.ar      1 <0>        -0.0574
     19 C15        -2.6849    1.4112    1.5914 C.ar      1 <0>        -0.1496
     20 C16        -3.1551    1.5913    2.8784 C.ar      1 <0>         0.0936
     21 N2         -2.7437    2.6079    3.6107 N.ar      1 <0>        -0.4871
     22 C17        -1.8713    3.4843    3.1527 C.ar      1 <0>         0.0930
     23 C18        -1.3530    3.3654    1.8771 C.ar      1 <0>        -0.1554
     24 C19         1.7013    2.7484   -1.2576 C.ar      1 <0>        -0.0580
     25 C20         2.4283    3.8989   -1.0138 C.ar      1 <0>        -0.0640
     26 C21         2.7446    4.7508   -2.0553 C.ar      1 <0>        -0.1189
     27 C22         2.3345    4.4525   -3.3414 C.ar      1 <0>        -0.1020
     28 C23         1.6077    3.3015   -3.5858 C.ar      1 <0>        -0.0939
     29 C24         1.2955    2.4467   -2.5437 C.ar      1 <0>        -0.0747
     30 Br1         1.0465    2.8930   -5.3447 Br        1 <0>        -0.0699
     31 O3          4.3198    1.7741   -0.0030 O.2       1 <0>        -0.6295
     32 C25         3.2802   -1.0652    2.3058 C.3       1 <0>        -0.1186
     33 H2          7.2794   -3.6712   -1.7095 H         1 <0>         0.0593
     34 H3          7.6325   -1.9503   -2.0845 H         1 <0>         0.0635
     35 H4          6.2703   -2.7869   -2.9038 H         1 <0>         0.0642
     36 H5          6.2637   -4.0110    0.3235 H         1 <0>         0.1125
     37 H6          4.7503   -3.3214    2.1359 H         1 <0>         0.1147
     38 H7          5.3646   -0.4405   -1.8253 H         1 <0>         0.1152
     39 H8         -0.9768    3.1326   -0.7368 H         1 <0>         0.0919
     40 H9         -1.9779    1.6566   -0.9508 H         1 <0>         0.0934
     41 H10        -3.0290    0.5792    0.9949 H         1 <0>         0.1373
     42 H11        -3.8705    0.8935    3.2879 H         1 <0>         0.1537
     43 H12        -1.5579    4.3042    3.7819 H         1 <0>         0.1540
     44 H13        -0.6382    4.0860    1.5079 H         1 <0>         0.1346
     45 H14         2.7488    4.1323   -0.0092 H         1 <0>         0.1275
     46 H15         3.3125    5.6494   -1.8644 H         1 <0>         0.1252
     47 H16         2.5820    5.1180   -4.1552 H         1 <0>         0.1236
     48 H17         0.7314    1.5457   -2.7347 H         1 <0>         0.1217
     49 H18         2.8337   -0.0899    2.0621 H         1 <0>         0.0761
     50 H19         3.8512   -0.9833    3.2424 H         1 <0>         0.0582
     51 H20         2.4831   -1.8135    2.4265 H         1 <0>         0.0652
@<TRIPOS>BOND
     1    1    2 1
     2    1   33 1
     3    1   34 1
     4    1   35 1
     5    2    7 ar
     6    2    3 ar
     7    3    4 ar
     8    3   36 1
     9    4    5 ar
    10    4   37 1
    11    5    6 ar
    12    5   32 1
    13    6    7 ar
    14    6    8 1
    15    7   38 1
    16    8    9 1
    17    8   31 2
    18    9   15 2
    19    9   10 1
    20   10   11 1
    21   10   12 1
    22   10   24 1
    23   12   13 am
    24   12   17 1
    25   13   14 2
    26   13   15 1
    27   15   16 1
    28   17   18 1
    29   17   39 1
    30   17   40 1
    31   18   23 ar
    32   18   19 ar
    33   19   20 ar
    34   19   41 1
    35   20   21 ar
    36   20   42 1
    37   21   22 ar
    38   22   23 ar
    39   22   43 1
    40   23   44 1
    41   24   29 ar
    42   24   25 ar
    43   25   26 ar
    44   25   45 1
    45   26   27 ar
    46   26   46 1
    47   27   28 ar
    48   27   47 1
    49   28   29 ar
    50   28   30 1
    51   29   48 1
    52   32   49 1
    53   32   50 1
    54   32   51 1
@<TRIPOS>MOLECULE
ZINC36833193
   46    48     0     0     0
SMALL
USER_CHARGES

@<TRIPOS>ATOM
      1 C1         -0.4051    0.8139   -0.1083 C.3       1 <0>        -0.1060
      2 C2          0.0876   -0.5846    0.1609 C.ar      1 <0>        -0.1769
      3 C3          0.6551   -1.3235   -0.8572 C.ar      1 <0>        -0.0797
      4 C4          1.1113   -2.6102   -0.6202 C.ar      1 <0>        -0.1951
      5 C5          1.0029   -3.1671    0.6355 C.ar      1 <0>        -0.0754
      6 C6          0.4310   -2.4323    1.6768 C.ar      1 <0>        -0.1813
      7 C7         -0.0247   -1.1267    1.4350 C.ar      1 <0>         0.3071
      8 N1         -0.5898   -0.3830    2.4627 N.2       1 <0>        -1.0887
      9 S1          0.1374    1.0160    2.9690 S.o2      1 <0>         2.5986
     10 O1          1.4847    0.6852    3.2764 O.2       1 <0>        -1.0321
     11 O2         -0.2038    2.0174    2.0203 O.2       1 <0>        -1.0029
     12 C8         -0.6262    1.4800    4.4877 C.ar      1 <0>        -0.6136
     13 C9          0.1115    1.4934    5.6566 C.ar      1 <0>         0.0285
     14 C10        -0.4874    1.8573    6.8480 C.ar      1 <0>        -0.2128
     15 C11        -1.8245    2.2082    6.8713 C.ar      1 <0>        -0.0253
     16 C12        -2.5631    2.1952    5.7034 C.ar      1 <0>        -0.1399
     17 C13        -1.9627    1.8364    4.5094 C.ar      1 <0>         0.0897
     18 Cl1        -2.8881    1.8262    3.0407 Cl        1 <0>        -0.0144
     19 C14         0.3173    1.8713    8.1221 C.3       1 <0>         0.5139
     20 F1          0.8933    3.1343    8.2961 F         1 <0>        -0.1766
     21 F2         -0.5205    1.5874    9.2059 F         1 <0>        -0.1772
     22 F3          1.3263    0.9050    8.0470 F         1 <0>        -0.1724
     23 C15         0.3116   -3.0223    3.0227 C.2       1 <0>         0.5951
     24 O3         -0.7244   -2.9045    3.6485 O.2       1 <0>        -0.5137
     25 N2          1.3506   -3.6922    3.5594 N.am      1 <0>        -0.6291
     26 C16         2.6924   -3.8074    2.9696 C.3       1 <0>         0.1002
     27 C17         3.5366   -4.6835    3.9191 C.3       1 <0>        -0.1324
     28 C18         2.4616   -5.4801    4.7046 C.3       1 <0>        -0.1324
     29 C19         1.3318   -4.4254    4.8382 C.3       1 <0>         0.1082
     30 H1          0.4107    1.5214    0.0402 H         1 <0>         0.0641
     31 H2         -0.7623    0.8817   -1.1359 H         1 <0>         0.0394
     32 H3         -1.2200    1.0500    0.5760 H         1 <0>         0.0914
     33 H4          0.7439   -0.8962   -1.8451 H         1 <0>         0.1059
     34 H5          1.5538   -3.1798   -1.4241 H         1 <0>         0.1072
     35 H6          1.3595   -4.1708    0.8144 H         1 <0>         0.1091
     36 H7          1.1560    1.2191    5.6391 H         1 <0>         0.1551
     37 H8         -2.2920    2.4921    7.8026 H         1 <0>         0.1459
     38 H9         -3.6076    2.4690    5.7218 H         1 <0>         0.1487
     39 H10         2.6272   -4.2796    1.9894 H         1 <0>         0.0686
     40 H11         3.1432   -2.8192    2.8781 H         1 <0>         0.0682
     41 H12         4.1789   -5.3577    3.3526 H         1 <0>         0.0772
     42 H13         4.1265   -4.0631    4.5938 H         1 <0>         0.0735
     43 H14         2.1255   -6.3476    4.1367 H         1 <0>         0.0728
     44 H15         2.8342   -5.7772    5.6849 H         1 <0>         0.0775
     45 H16         1.5381   -3.7480    5.6669 H         1 <0>         0.0601
     46 H17         0.3693   -4.9170    4.9795 H         1 <0>         0.0717
@<TRIPOS>BOND
     1    1    2 1
     2    1   30 1
     3    1   31 1
     4    1   32 1
     5    2    7 ar
     6    2    3 ar
     7    3    4 ar
     8    3   33 1
     9    4    5 ar
    10    4   34 1
    11    5    6 ar
    12    5   35 1
    13    6    7 ar
    14    6   23 1
    15    7    8 1
    16    8    9 1
    17    9   10 2
    18    9   11 2
    19    9   12 1
    20   12   17 ar
    21   12   13 ar
    22   13   14 ar
    23   13   36 1
    24   14   15 ar
    25   14   19 1
    26   15   16 ar
    27   15   37 1
    28   16   17 ar
    29   16   38 1
    30   17   18 1
    31   19   20 1
    32   19   21 1
    33   19   22 1
    34   23   24 2
    35   23   25 am
    36   25   29 1
    37   25   26 1
    38   26   27 1
    39   26   39 1
    40   26   40 1
    41   27   28 1
    42   27   41 1
    43   27   42 1
    44   28   29 1
    45   28   43 1
    46   28   44 1
    47   29   45 1
    48   29   46 1
@<TRIPOS>MOLECULE
ZINC01805178
   39    41     0     0     0
SMALL
USER_CHARGES

@<TRIPOS>ATOM
      1 C1         -0.0187    1.5258    0.0104 C.3       1 <0>        -0.1458
      2 C2          0.0021   -0.0041    0.0020 C.3       1 <0>        -0.1381
      3 C3          0.7421   -0.5109    1.2415 C.3       1 <0>         0.0470
      4 H1          1.7350   -0.0630    1.2804 H         1 <0>         0.1068
      5 C4          0.8700   -2.0108    1.1719 C.2       1 <0>         0.4957
      6 O1          1.8419   -2.5156    0.6361 O.co2     1 <0>        -0.6763
      7 O2          0.0015   -2.7197    1.6514 O.co2     1 <0>        -0.6450
      8 N1         -0.0083   -0.1401    2.4439 N.am      1 <0>        -0.4897
      9 C5          0.5644    0.6336    3.3505 C.2       1 <0>         0.5347
     10 O3          1.7017    1.0465    3.2113 O.2       1 <0>        -0.4808
     11 C6         -0.2399    0.9719    4.5361 C.2       1 <0>        -0.1892
     12 C7          0.0845    1.7396    5.6173 C.2       1 <0>         0.0487
     13 C8         -0.8546    1.9325    6.6531 C.2       1 <0>         0.0049
     14 C9         -0.6604    2.6868    7.7968 C.2       1 <0>        -0.1510
     15 C10        -1.8406    2.6025    8.5398 C.2       1 <0>        -0.1865
     16 C11        -2.7042    1.8113    7.8360 C.2       1 <0>         0.0449
     17 O4         -2.1018    1.4184    6.6989 O.3       1 <0>        -0.1454
     18 C12        -4.0736    1.4516    8.2518 C.ar      1 <0>        -0.0043
     19 C13        -4.5909    1.9349    9.4565 C.ar      1 <0>        -0.0909
     20 C14        -5.8713    1.5949    9.8392 C.ar      1 <0>        -0.0887
     21 C15        -6.6440    0.7764    9.0325 C.ar      1 <0>        -0.0853
     22 C16        -6.1375    0.2940    7.8373 C.ar      1 <0>        -0.0848
     23 C17        -4.8608    0.6309    7.4400 C.ar      1 <0>        -0.0899
     24 Br1        -8.3986    0.3150    9.5658 Br        1 <0>        -0.0480
     25 S1         -1.7582    0.1020    4.1709 S.3       1 <0>         0.0149
     26 C18        -1.2701   -0.5908    2.5991 C.2       1 <0>         0.2263
     27 S2         -2.1811   -1.5873    1.5465 S.2       1 <0>        -0.1747
     28 H2          1.0039    1.9031    0.0027 H         1 <0>         0.0525
     29 H3         -0.5459    1.8868   -0.8726 H         1 <0>         0.0560
     30 H4         -0.5289    1.8773    0.9072 H         1 <0>         0.0387
     31 H5         -1.0205   -0.3814    0.0098 H         1 <0>         0.0966
     32 H6          0.5123   -0.3556   -0.8948 H         1 <0>         0.0830
     33 H7          1.0597    2.1993    5.6802 H         1 <0>         0.1800
     34 H8          0.2314    3.2343    8.0638 H         1 <0>         0.1634
     35 H9         -2.0340    3.0740    9.4920 H         1 <0>         0.1582
     36 H10        -3.9891    2.5731   10.0867 H         1 <0>         0.1388
     37 H11        -6.2722    1.9675   10.7702 H         1 <0>         0.1391
     38 H12        -6.7453   -0.3442    7.2131 H         1 <0>         0.1406
     39 H13        -4.4686    0.2579    6.5053 H         1 <0>         0.1436
@<TRIPOS>BOND
     1    1    2 1
     2    1   28 1
     3    1   29 1
     4    1   30 1
     5    2    3 1
     6    2   31 1
     7    2   32 1
     8    3    4 1
     9    3    5 1
    10    3    8 1
    11    5    6 2
    12    5    7 1
    13    8   26 1
    14    8    9 am
    15    9   10 2
    16    9   11 1
    17   11   12 2
    18   11   25 1
    19   12   13 1
    20   12   33 1
    21   13   17 1
    22   13   14 2
    23   14   15 1
    24   14   34 1
    25   15   16 2
    26   15   35 1
    27   16   17 1
    28   16   18 1
    29   18   23 ar
    30   18   19 ar
    31   19   20 ar
    32   19   36 1
    33   20   21 ar
    34   20   37 1
    35   21   22 ar
    36   21   24 1
    37   22   23 ar
    38   22   38 1
    39   23   39 1
    40   25   26 1
    41   26   27 2
@<TRIPOS>MOLECULE
ZINC59105369
   58    61     0     0     0
SMALL
USER_CHARGES

@<TRIPOS>ATOM
      1 C1         -0.0187    1.5258    0.0104 C.3       1 <0>        -0.1463
      2 C2          0.0021   -0.0041    0.0020 C.3       1 <0>         0.0643
      3 O1         -1.3386   -0.4987    0.0122 O.3       1 <0>        -0.3192
      4 C3         -1.4967   -1.8348    0.0065 C.2       1 <0>         0.4957
      5 O2         -0.4188   -2.6398   -0.0081 O.3       1 <0>        -0.6284
      6 C4         -2.7735   -2.3834    0.0157 C.2       1 <0>        -0.4622
      7 C5         -2.9969   -3.8346    0.0101 C.2       1 <0>         0.3143
      8 S1         -4.7702   -3.9934    0.0268 S.3       1 <0>        -0.0982
      9 C6         -5.2398   -2.2761    0.0408 C.2       1 <0>        -0.1798
     10 C7         -6.4922   -1.7508    0.0565 C.2       1 <0>         0.0159
     11 C8         -7.6602   -2.6389    0.0632 C.2       1 <0>        -0.1404
     12 C9         -7.6534   -4.1069    0.0612 C.2       1 <0>        -0.1558
     13 C10        -8.9397   -4.4971    0.0702 C.2       1 <0>         0.0138
     14 N1         -9.7439   -3.3924    0.0776 N.pl3     1 <0>        -0.4029
     15 C11        -8.9886   -2.2638    0.0788 C.2       1 <0>         0.0500
     16 C12        -9.5094   -0.8497    0.0914 C.3       1 <0>        -0.0848
     17 C13       -11.1449   -3.4200    0.0876 C.ar      1 <0>         0.1231
     18 C14       -11.8580   -2.9300   -0.9983 C.ar      1 <0>        -0.1106
     19 C15       -13.2388   -2.9586   -0.9855 C.ar      1 <0>        -0.1082
     20 C16       -13.9111   -3.4742    0.1074 C.ar      1 <0>        -0.1158
     21 C17       -13.2036   -3.9629    1.1904 C.ar      1 <0>        -0.1083
     22 C18       -11.8226   -3.9427    1.1809 C.ar      1 <0>        -0.1101
     23 C19        -9.4188   -5.9259    0.0714 C.3       1 <0>        -0.0817
     24 C20        -3.9594   -1.5606    0.0376 C.2       1 <0>         0.4293
     25 O3         -3.9002   -0.3420    0.0491 O.2       1 <0>        -0.4986
     26 N2         -2.0938   -4.7969   -0.0048 N.2       1 <0>        -0.4864
     27 C21        -2.4890   -6.1046   -0.0078 C.ar      1 <0>         0.1314
     28 C22        -3.5051   -6.5331    0.8510 C.ar      1 <0>        -0.1673
     29 C23        -3.8991   -7.8547    0.8419 C.ar      1 <0>        -0.0964
     30 C24        -3.2911   -8.7557   -0.0147 C.ar      1 <0>        -0.1304
     31 C25        -2.2840   -8.3389   -0.8675 C.ar      1 <0>        -0.1032
     32 C26        -1.8833   -7.0193   -0.8738 C.ar      1 <0>        -0.1254
     33 C27        -3.7275  -10.1981   -0.0184 C.3       1 <0>        -0.1029
     34 H1          1.0039    1.9031    0.0027 H         1 <0>         0.0666
     35 H2         -0.5459    1.8868   -0.8726 H         1 <0>         0.0610
     36 H3         -0.5289    1.8773    0.9072 H         1 <0>         0.0610
     37 H4          0.5123   -0.3556   -0.8948 H         1 <0>         0.0548
     38 H5          0.5293   -0.3651    0.8851 H         1 <0>         0.0547
     39 H6         -6.6284   -0.6795    0.0640 H         1 <0>         0.1388
     40 H7         -6.7845   -4.7483    0.0534 H         1 <0>         0.1578
     41 H8         -9.6460   -0.5036   -0.9331 H         1 <0>         0.0734
     42 H9        -10.4646   -0.8189    0.6156 H         1 <0>         0.0629
     43 H10        -8.7944   -0.2037    0.6008 H         1 <0>         0.0853
     44 H11       -11.3336   -2.5266   -1.8519 H         1 <0>         0.1293
     45 H12       -13.7941   -2.5776   -1.8298 H         1 <0>         0.1301
     46 H13       -14.9908   -3.4948    0.1154 H         1 <0>         0.1273
     47 H14       -13.7314   -4.3650    2.0425 H         1 <0>         0.1300
     48 H15       -11.2705   -4.3287    2.0251 H         1 <0>         0.1291
     49 H16        -9.5271   -6.2720    1.0993 H         1 <0>         0.0686
     50 H17       -10.3818   -5.9866   -0.4357 H         1 <0>         0.0596
     51 H18        -8.6942   -6.5525   -0.4486 H         1 <0>         0.0816
     52 H19        -3.9803   -5.8312    1.5202 H         1 <0>         0.1250
     53 H20        -4.6838   -8.1874    1.5051 H         1 <0>         0.1137
     54 H21        -1.8139   -9.0478   -1.5329 H         1 <0>         0.1155
     55 H22        -1.1003   -6.6945   -1.5431 H         1 <0>         0.1214
     56 H23        -4.5326  -10.3323   -0.7408 H         1 <0>         0.0612
     57 H24        -2.8842  -10.8322   -0.2923 H         1 <0>         0.0585
     58 H25        -4.0813  -10.4733    0.9752 H         1 <0>         0.0586
@<TRIPOS>BOND
     1    1    2 1
     2    1   34 1
     3    1   35 1
     4    1   36 1
     5    2    3 1
     6    2   37 1
     7    2   38 1
     8    3    4 1
     9    4    5 1
    10    4    6 2
    11    6    7 1
    12    6   24 1
    13    7   26 2
    14    7    8 1
    15    8    9 1
    16    9   10 2
    17    9   24 1
    18   10   11 1
    19   10   39 1
    20   11   15 2
    21   11   12 1
    22   12   13 2
    23   12   40 1
    24   13   14 1
    25   13   23 1
    26   14   15 1
    27   14   17 1
    28   15   16 1
    29   16   41 1
    30   16   42 1
    31   16   43 1
    32   17   22 ar
    33   17   18 ar
    34   18   19 ar
    35   18   44 1
    36   19   20 ar
    37   19   45 1
    38   20   21 ar
    39   20   46 1
    40   21   22 ar
    41   21   47 1
    42   22   48 1
    43   23   49 1
    44   23   50 1
    45   23   51 1
    46   24   25 2
    47   26   27 1
    48   27   32 ar
    49   27   28 ar
    50   28   29 ar
    51   28   52 1
    52   29   30 ar
    53   29   53 1
    54   30   31 ar
    55   30   33 1
    56   31   32 ar
    57   31   54 1
    58   32   55 1
    59   33   56 1
    60   33   57 1
    61   33   58 1
@<TRIPOS>MOLECULE
ZINC08735648
   42    44     0     0     0
SMALL
USER_CHARGES
2-[5-[[5-(3,4-dichlorophenyl)-2-furyl]methylene]-4-oxo-2-thioxo-thiazolidin-3-yl]pentanoic acid
@<TRIPOS>ATOM
      1 C1         -0.3827   -5.3294   -3.4257 C.3       1 <0>        -0.1458
      2 C2          0.0927   -4.4707   -2.2521 C.3       1 <0>        -0.1213
      3 C3         -0.2237   -5.1849   -0.9365 C.3       1 <0>        -0.1294
      4 C4          0.2516   -4.3262    0.2372 C.3       1 <0>         0.0724
      5 H1         -0.1921   -3.3333    0.1640 H         1 <0>         0.1132
      6 C5         -0.1686   -4.9700    1.5333 C.2       1 <0>         0.4725
      7 O1          0.6659   -5.3001    2.3423 O.co2     1 <0>        -0.6141
      8 N1          1.7117   -4.2126    0.1992 N.am      1 <0>        -0.4907
      9 C6          2.2694   -3.0187    0.0960 C.2       1 <0>         0.5294
     10 O2          1.5878   -2.0113    0.0329 O.2       1 <0>        -0.4499
     11 C7          3.6953   -2.9459    0.0566 C.2       1 <0>        -0.2124
     12 C8          4.5065   -1.8530   -0.0482 C.2       1 <0>         0.0788
     13 C9          3.9503   -0.5850   -0.3215 C.2       1 <0>        -0.0095
     14 C10         4.6315    0.6194   -0.3192 C.2       1 <0>        -0.1450
     15 C11         3.7010    1.6088   -0.6466 C.2       1 <0>        -0.1959
     16 C12         2.4977    0.9867   -0.8262 C.2       1 <0>         0.0510
     17 O3          2.6606   -0.3345   -0.6313 O.3       1 <0>        -0.1003
     18 C13         1.2301    1.6532   -1.1814 C.ar      1 <0>        -0.0049
     19 C14         1.1913    3.0391   -1.3573 C.ar      1 <0>        -0.0814
     20 C15         0.0038    3.6564   -1.6888 C.ar      1 <0>        -0.0983
     21 C16        -1.1497    2.9063   -1.8477 C.ar      1 <0>        -0.0259
     22 C17        -1.1176    1.5308   -1.6800 C.ar      1 <0>        -0.0290
     23 C18         0.0637    0.9016   -1.3430 C.ar      1 <0>        -0.0708
     24 Cl1        -2.5671    0.5985   -1.8884 Cl        1 <0>        -0.0353
     25 Cl2        -2.6407    3.6917   -2.2646 Cl        1 <0>        -0.0461
     26 S1          4.1285   -4.6751    0.1898 S.3       1 <0>         0.0137
     27 C19         2.4686   -5.3296    0.2759 C.2       1 <0>         0.2994
     28 S2          1.9642   -6.9593    0.4202 S.2       1 <0>        -0.2807
     29 H2          0.1288   -6.2916   -3.4026 H         1 <0>         0.0542
     30 H3         -1.4583   -5.4878   -3.3478 H         1 <0>         0.0566
     31 H4         -0.1573   -4.8206   -4.3630 H         1 <0>         0.0484
     32 H5         -0.4189   -3.5084   -2.2753 H         1 <0>         0.0592
     33 H6          1.1683   -4.3123   -2.3300 H         1 <0>         0.0440
     34 H7          0.2878   -6.1471   -0.9133 H         1 <0>         0.0939
     35 H8         -1.2993   -5.3433   -0.8586 H         1 <0>         0.0938
     36 H9          5.5738   -1.9587    0.0780 H         1 <0>         0.1787
     37 H10         5.6809    0.7658   -0.1100 H         1 <0>         0.1626
     38 H11         3.8956    2.6672   -0.7378 H         1 <0>         0.1574
     39 H12         2.0897    3.6255   -1.2334 H         1 <0>         0.1453
     40 H13        -0.0270    4.7274   -1.8244 H         1 <0>         0.1492
     41 H14         0.0872   -0.1698   -1.2088 H         1 <0>         0.1571
     42 O4         -1.4700   -5.1767    1.7889 O.co2     1 <0>        -0.7444
@<TRIPOS>BOND
     1    1    2 1
     2    1   29 1
     3    1   30 1
     4    1   31 1
     5    2    3 1
     6    2   32 1
     7    2   33 1
     8    3    4 1
     9    3   34 1
    10    3   35 1
    11    4    5 1
    12    4    6 1
    13    4    8 1
    14    6    7 2
    15    6   42 1
    16    8   27 1
    17    8    9 am
    18    9   10 2
    19    9   11 1
    20   11   12 2
    21   11   26 1
    22   12   13 1
    23   12   36 1
    24   13   17 1
    25   13   14 2
    26   14   15 1
    27   14   37 1
    28   15   16 2
    29   15   38 1
    30   16   17 1
    31   16   18 1
    32   18   23 ar
    33   18   19 ar
    34   19   20 ar
    35   19   39 1
    36   20   21 ar
    37   20   40 1
    38   21   22 ar
    39   21   25 1
    40   22   23 ar
    41   22   24 1
    42   23   41 1
    43   26   27 1
    44   27   28 2
@<TRIPOS>MOLECULE
ZINC13260358
   43    46     0     0     0
SMALL
USER_CHARGES
3-[(3-allyl-6-chloro-4-oxo-quinazolin-2-yl)sulfanylmethyl]-4-fluoro-benzothiophene-2-carboxylic acid
@<TRIPOS>ATOM
      1 C1          7.1455    3.7457   -5.4581 C.2       1 <0>        -0.1557
      2 C2          6.4932    3.5960   -4.3320 C.2       1 <0>        -0.1794
      3 C3          6.1001    2.2176   -3.8664 C.3       1 <0>         0.1163
      4 N1          6.6176    1.9928   -2.5144 N.am      1 <0>        -0.5244
      5 C4          7.8495    1.4583   -2.3475 C.2       1 <0>         0.5604
      6 O1          8.5418    1.1582   -3.3027 O.2       1 <0>        -0.5090
      7 C5          8.3185    1.2482   -0.9712 C.ar      1 <0>        -0.2033
      8 C6          9.5704    0.6994   -0.6958 C.ar      1 <0>        -0.0229
      9 C7          9.9592    0.5251    0.6151 C.ar      1 <0>        -0.0705
     10 C8          9.1152    0.8913    1.6573 C.ar      1 <0>        -0.0600
     11 C9          7.8850    1.4305    1.4091 C.ar      1 <0>        -0.1034
     12 C10         7.4622    1.6196    0.0902 C.ar      1 <0>         0.1911
     13 N2          6.2505    2.1514   -0.1962 N.2       1 <0>        -0.5306
     14 C11         5.8549    2.3288   -1.4325 C.2       1 <0>         0.3844
     15 S1          4.2616    3.0270   -1.7125 S.3       1 <0>         0.0245
     16 C12         3.7156    3.2599   -0.0026 C.3       1 <0>        -0.0508
     17 C13         2.3350    3.8639    0.0061 C.2       1 <0>        -0.1189
     18 C14         2.1782    5.2607    0.0091 C.ar      1 <0>        -0.0977
     19 C15         3.1900    6.2588    0.0044 C.ar      1 <0>         0.1344
     20 C16         2.8582    7.5882    0.0157 C.ar      1 <0>        -0.1621
     21 C17         1.5328    8.0044    0.0311 C.ar      1 <0>        -0.0828
     22 C18         0.5237    7.0632    0.0357 C.ar      1 <0>        -0.0808
     23 C19         0.8404    5.7214    0.0250 C.ar      1 <0>        -0.1196
     24 S2         -0.1122    4.2232    0.0264 S.3       1 <0>         0.1048
     25 C20         1.2390    3.0579    0.0067 C.2       1 <0>        -0.0829
     26 C21         1.1820    1.5913   -0.0007 C.2       1 <0>         0.5208
     27 O2          2.2106    0.9431   -0.0140 O.co2     1 <0>        -0.5881
     28 F1          4.4906    5.8936   -0.0109 F         1 <0>        -0.1309
     29 Cl1        11.5158   -0.1579    0.9676 Cl        1 <0>        -0.0689
     30 H1          7.4015    2.8814   -6.0529 H         1 <0>         0.1016
     31 H2          7.4272    4.7335   -5.7917 H         1 <0>         0.1041
     32 H3          6.2372    4.4603   -3.7372 H         1 <0>         0.1186
     33 H4          6.5174    1.4726   -4.5438 H         1 <0>         0.1082
     34 H5          5.0134    2.1331   -3.8582 H         1 <0>         0.1099
     35 H6         10.2295    0.4138   -1.5023 H         1 <0>         0.1450
     36 H7          9.4370    0.7473    2.6782 H         1 <0>         0.1420
     37 H8          7.2409    1.7103    2.2295 H         1 <0>         0.1492
     38 H9          4.4073    3.9268    0.5120 H         1 <0>         0.1063
     39 H10         3.6937    2.2962    0.5063 H         1 <0>         0.1398
     40 H11         3.6443    8.3287    0.0122 H         1 <0>         0.1350
     41 H12         1.2938    9.0576    0.0391 H         1 <0>         0.1390
     42 H13        -0.5098    7.3763    0.0480 H         1 <0>         0.1349
     43 O3         -0.0110    0.9628    0.0073 O.co2     1 <0>        -0.7274
@<TRIPOS>BOND
     1    1    2 2
     2    1   30 1
     3    1   31 1
     4    2    3 1
     5    2   32 1
     6    3    4 1
     7    3   33 1
     8    3   34 1
     9    4   14 1
    10    4    5 am
    11    5    6 2
    12    5    7 1
    13    7   12 ar
    14    7    8 ar
    15    8    9 ar
    16    8   35 1
    17    9   10 ar
    18    9   29 1
    19   10   11 ar
    20   10   36 1
    21   11   12 ar
    22   11   37 1
    23   12   13 1
    24   13   14 2
    25   14   15 1
    26   15   16 1
    27   16   17 1
    28   16   38 1
    29   16   39 1
    30   17   25 2
    31   17   18 1
    32   18   23 ar
    33   18   19 ar
    34   19   20 ar
    35   19   28 1
    36   20   21 ar
    37   20   40 1
    38   21   22 ar
    39   21   41 1
    40   22   23 ar
    41   22   42 1
    42   23   24 1
    43   24   25 1
    44   25   26 1
    45   26   27 2
    46   26   43 1
@<TRIPOS>MOLECULE
ZINC02207099
   58    61     0     0     0
SMALL
USER_CHARGES

@<TRIPOS>ATOM
      1 C1          0.1936    0.8883    1.1840 C.ar      1 <0>         0.0566
      2 C2          1.3656    1.5724    1.2937 C.ar      1 <0>        -0.1959
      3 C3          2.3937    1.3796    0.3598 C.ar      1 <0>         0.2272
      4 C4          2.2054    0.4786   -0.6848 C.ar      1 <0>        -0.2007
      5 C5          1.0360   -0.2139   -0.8056 C.ar      1 <0>        -0.0164
      6 C6          0.0059   -0.0202    0.1294 C.ar      1 <0>        -0.1537
      7 C7         -1.2120   -0.7358    0.0102 C.2       1 <0>         0.1005
      8 C8         -2.4216   -0.0700    0.1304 C.2       1 <0>        -0.2838
      9 C9         -2.4933    1.3996    0.1364 C.2       1 <0>         0.4948
     10 O1         -1.3739    2.1461    0.0240 O.3       1 <0>        -0.5789
     11 N1         -3.6783    1.9719    0.2538 N.2       1 <0>        -0.6015
     12 C10        -4.7983    1.2623    0.3657 C.2       1 <0>         0.5475
     13 N2         -4.8306   -0.0783    0.3704 N.am      1 <0>        -0.5451
     14 C11        -3.6974   -0.8033    0.2521 C.2       1 <0>         0.5594
     15 O2         -3.7263   -2.0197    0.2509 O.2       1 <0>        -0.5166
     16 C12        -6.1169   -0.7676    0.4993 C.3       1 <0>         0.1040
     17 C13        -6.7076   -1.0091   -0.8913 C.3       1 <0>        -0.0935
     18 C14        -8.0308   -1.7182   -0.7587 C.2       1 <0>        -0.1144
     19 C15        -9.1072   -0.9993   -0.7576 C.2       1 <0>        -0.1517
     20 C16       -10.4926   -1.5600   -0.6230 C.3       1 <0>        -0.0872
     21 C17       -10.4840   -3.0621   -0.9151 C.3       1 <0>        -0.1199
     22 C18        -9.3610   -3.7094   -0.0947 C.3       1 <0>        -0.1185
     23 C19        -8.0188   -3.2143   -0.6421 C.3       1 <0>        -0.0827
     24 S1         -6.2799    2.1075    0.5123 S.2       1 <0>        -0.6777
     25 C20         3.4565    0.4644   -1.5351 C.3       1 <0>        -0.0764
     26 C21         4.3952    1.4719   -0.8511 C.3       1 <0>         0.1209
     27 N3          3.6449    1.9757    0.3017 N.pl3     1 <0>        -0.6238
     28 C22         4.1444    2.9681    1.2566 C.3       1 <0>         0.1408
     29 C23         4.8609    2.2551    2.4052 C.3       1 <0>        -0.1515
     30 C24         5.3826    3.2916    3.4025 C.3       1 <0>        -0.0295
     31 Cl1         6.2270    2.4514    4.7560 Cl        1 <0>        -0.1865
     32 H1         -0.5905    1.0410    1.9108 H         1 <0>         0.1173
     33 H2          1.5045    2.2698    2.1066 H         1 <0>         0.1133
     34 H3          0.9020   -0.9098   -1.6205 H         1 <0>         0.1189
     35 H4         -1.1973   -1.7998   -0.1743 H         1 <0>         0.1353
     36 H5         -5.9682   -1.7233    1.0019 H         1 <0>         0.0801
     37 H6         -6.8017   -0.1527    1.0832 H         1 <0>         0.1185
     38 H7         -6.8563   -0.0534   -1.3939 H         1 <0>         0.0812
     39 H8         -6.0228   -1.6241   -1.4752 H         1 <0>         0.0606
     40 H9         -9.0016    0.0707   -0.8596 H         1 <0>         0.1118
     41 H10       -10.8537   -1.3913    0.3915 H         1 <0>         0.0709
     42 H11       -11.1554   -1.0587   -1.3283 H         1 <0>         0.0671
     43 H12       -11.4425   -3.4962   -0.6307 H         1 <0>         0.0597
     44 H13       -10.3040   -3.2278   -1.9773 H         1 <0>         0.0615
     45 H14        -9.4612   -3.4242    0.9525 H         1 <0>         0.0644
     46 H15        -9.4165   -4.7939   -0.1893 H         1 <0>         0.0606
     47 H16        -7.8416   -3.6518   -1.6246 H         1 <0>         0.0689
     48 H17        -7.2205   -3.5175    0.0354 H         1 <0>         0.0712
     49 H18         3.9029   -0.5300   -1.5390 H         1 <0>         0.0795
     50 H19         3.2295    0.7849   -2.5518 H         1 <0>         0.0802
     51 H20         5.3072    0.9748   -0.5207 H         1 <0>         0.0642
     52 H21         4.6344    2.2884   -1.5325 H         1 <0>         0.0653
     53 H22         4.8417    3.6378    0.7533 H         1 <0>         0.0776
     54 H23         3.3082    3.5447    1.6522 H         1 <0>         0.0807
     55 H24         4.1636    1.5854    2.9085 H         1 <0>         0.0807
     56 H25         5.6971    1.6786    2.0096 H         1 <0>         0.0760
     57 H26         6.0799    3.9613    2.8992 H         1 <0>         0.0932
     58 H27         4.5464    3.8682    3.7981 H         1 <0>         0.0956
@<TRIPOS>BOND
     1    1    6 ar
     2    1    2 ar
     3    1   32 1
     4    2    3 ar
     5    2   33 1
     6    3   27 1
     7    3    4 ar
     8    4    5 ar
     9    4   25 1
    10    5    6 ar
    11    5   34 1
    12    6    7 1
    13    7    8 2
    14    7   35 1
    15    8   14 1
    16    8    9 1
    17    9   10 1
    18    9   11 2
    19   11   12 1
    20   12   13 1
    21   12   24 2
    22   13   14 am
    23   13   16 1
    24   14   15 2
    25   16   17 1
    26   16   36 1
    27   16   37 1
    28   17   18 1
    29   17   38 1
    30   17   39 1
    31   18   23 1
    32   18   19 2
    33   19   20 1
    34   19   40 1
    35   20   21 1
    36   20   41 1
    37   20   42 1
    38   21   22 1
    39   21   43 1
    40   21   44 1
    41   22   23 1
    42   22   45 1
    43   22   46 1
    44   23   47 1
    45   23   48 1
    46   25   26 1
    47   25   49 1
    48   25   50 1
    49   26   27 1
    50   26   51 1
    51   26   52 1
    52   27   28 1
    53   28   29 1
    54   28   53 1
    55   28   54 1
    56   29   30 1
    57   29   55 1
    58   29   56 1
    59   30   31 1
    60   30   57 1
    61   30   58 1
@<TRIPOS>MOLECULE
ZINC39997120
   40    42     0     0     0
SMALL
USER_CHARGES

@<TRIPOS>ATOM
      1 C1         -0.9997   -0.8078    0.1350 C.ar      1 <0>        -0.1080
      2 C2          0.0435    0.0857   -0.0212 C.ar      1 <0>        -0.1194
      3 C3          1.3475   -0.3723   -0.0486 C.ar      1 <0>        -0.0976
      4 C4          1.6084   -1.7236    0.0806 C.ar      1 <0>        -0.0856
      5 C5          0.5652   -2.6170    0.2377 C.ar      1 <0>        -0.0976
      6 C6         -0.7388   -2.1592    0.2638 C.ar      1 <0>        -0.1194
      7 C7          3.0299   -2.2229    0.0496 C.3       1 <0>        -0.0702
      8 S1          3.7011   -2.2415    1.7348 S.3       1 <0>         0.0590
      9 C8          5.3457   -2.8405    1.5320 C.2       1 <0>         0.0023
     10 N1          5.9918   -3.2002    0.4300 N.2       1 <0>        -0.2719
     11 N2          7.1833   -3.6127    0.4598 N.2       1 <0>        -0.2798
     12 C9          7.8625   -3.7112    1.5998 C.2       1 <0>         0.2294
     13 S2          6.6227   -3.1295    2.7532 S.3       1 <0>         0.0835
     14 N3          9.1355   -4.1285    1.8240 N.2       1 <0>        -0.4412
     15 C10         9.8877   -4.5131    0.8174 C.2       1 <0>         0.4489
     16 C11        11.2654   -4.9647    1.0599 C.2       1 <0>        -0.0546
     17 C12        12.0532   -5.3675    0.0057 C.2       1 <0>         0.0380
     18 C13        13.3634   -5.9760    0.2599 C.ar      1 <0>        -0.0901
     19 C14        13.5589   -6.7808    1.3898 C.ar      1 <0>        -0.0803
     20 C15        14.7926   -7.3490    1.6209 C.ar      1 <0>        -0.0900
     21 C16        15.8383   -7.1263    0.7395 C.ar      1 <0>        -0.0661
     22 C17        15.6535   -6.3312   -0.3802 C.ar      1 <0>        -0.0950
     23 C18        14.4245   -5.7602   -0.6291 C.ar      1 <0>        -0.0714
     24 Br1        17.5273   -7.9113    1.0668 Br        1 <0>        -0.0344
     25 C19        11.7878   -4.9856    2.3931 C.1       1 <0>         0.2534
     26 N4         12.2022   -5.0021    3.4507 N.1       1 <0>        -0.3774
     27 O1          9.3941   -4.4934   -0.4424 O.3       1 <0>        -0.4490
     28 H1         -2.0182   -0.4496    0.1610 H         1 <0>         0.1256
     29 H2         -0.1603    1.1414   -0.1221 H         1 <0>         0.1271
     30 H3          2.1624    0.3257   -0.1714 H         1 <0>         0.1271
     31 H4          0.7690   -3.6728    0.3383 H         1 <0>         0.1271
     32 H5         -1.5538   -2.8572    0.3861 H         1 <0>         0.1270
     33 H6          3.0516   -3.2323   -0.3612 H         1 <0>         0.1079
     34 H7          3.6331   -1.5636   -0.5745 H         1 <0>         0.1079
     35 H8         11.7067   -5.2356   -1.0086 H         1 <0>         0.1643
     36 H9         12.7450   -6.9551    2.0779 H         1 <0>         0.1365
     37 H10        14.9452   -7.9694    2.4917 H         1 <0>         0.1416
     38 H11        16.4739   -6.1620   -1.0619 H         1 <0>         0.1435
     39 H12        14.2808   -5.1444   -1.5046 H         1 <0>         0.1462
     40 H13        10.0205   -4.7936   -1.1151 H         1 <0>         0.4025
@<TRIPOS>BOND
     1    1    6 ar
     2    1    2 ar
     3    1   28 1
     4    2    3 ar
     5    2   29 1
     6    3    4 ar
     7    3   30 1
     8    4    5 ar
     9    4    7 1
    10    5    6 ar
    11    5   31 1
    12    6   32 1
    13    7    8 1
    14    7   33 1
    15    7   34 1
    16    8    9 1
    17    9   13 1
    18    9   10 2
    19   10   11 1
    20   11   12 2
    21   12   13 1
    22   12   14 1
    23   14   15 2
    24   15   16 1
    25   15   27 1
    26   16   17 2
    27   16   25 1
    28   17   18 1
    29   17   35 1
    30   18   23 ar
    31   18   19 ar
    32   19   20 ar
    33   19   36 1
    34   20   21 ar
    35   20   37 1
    36   21   22 ar
    37   21   24 1
    38   22   23 ar
    39   22   38 1
    40   23   39 1
    41   25   26 3
    42   27   40 1
@<TRIPOS>MOLECULE
ZINC40077194
   49    51     0     0     0
SMALL
USER_CHARGES

@<TRIPOS>ATOM
      1 C1         -0.1751    1.6481    0.1125 C.3       1 <0>        -0.1504
      2 C2         -0.1207    0.1236   -0.0057 C.3       1 <0>        -0.1207
      3 C3         -1.5405   -0.4435    0.0534 C.3       1 <0>        -0.1371
      4 C4         -1.4862   -1.9679   -0.0648 C.3       1 <0>         0.1364
      5 N1         -2.8456   -2.5109   -0.0083 N.am      1 <0>        -0.6112
      6 C5         -3.5647   -2.9140    1.2059 C.3       1 <0>         0.2645
      7 H1         -3.6807   -2.0603    1.8736 H         1 <0>         0.0694
      8 C6         -4.9190   -3.4049    0.7502 C.2       1 <0>        -0.5067
      9 C7         -4.9453   -3.2833   -0.5977 C.2       1 <0>         0.2666
     10 C8         -3.6578   -2.7228   -1.0597 C.2       1 <0>         0.5108
     11 O1         -3.3742   -2.4902   -2.2180 O.2       1 <0>        -0.5337
     12 O2         -5.9861   -3.6172   -1.3948 O.3       1 <0>        -0.6509
     13 C9         -5.9967   -3.9148    1.6032 C.2       1 <0>         0.5024
     14 O3         -6.3375   -5.0800    1.5216 O.2       1 <0>        -0.4668
     15 C10        -6.6692   -3.0136    2.5625 C.ar      1 <0>        -0.1185
     16 C11        -6.3683   -1.6496    2.5727 C.ar      1 <0>        -0.0596
     17 C12        -6.9994   -0.8141    3.4696 C.ar      1 <0>        -0.1073
     18 C13        -7.9297   -1.3247    4.3597 C.ar      1 <0>        -0.0772
     19 C14        -8.2322   -2.6764    4.3550 C.ar      1 <0>        -0.1066
     20 C15        -7.6126   -3.5213    3.4589 C.ar      1 <0>        -0.0708
     21 Br1        -8.7901   -0.1717    5.5870 Br        1 <0>        -0.0623
     22 C16        -2.8196   -4.0212    1.9059 C.ar      1 <0>        -0.0715
     23 C17        -2.3162   -5.0827    1.1762 C.ar      1 <0>        -0.0697
     24 C18        -1.6333   -6.0992    1.8142 C.ar      1 <0>        -0.0977
     25 C19        -1.4517   -6.0544    3.1913 C.ar      1 <0>        -0.0902
     26 C20        -1.9585   -4.9859    3.9213 C.ar      1 <0>        -0.1327
     27 C21        -2.6359   -3.9704    3.2757 C.ar      1 <0>        -0.0979
     28 S1         -0.5814   -7.3494    4.0099 S.3       1 <0>        -0.1345
     29 C22        -0.6024   -6.8571    5.7557 C.3       1 <0>        -0.1403
     30 H2          0.8364    2.0521    0.0704 H         1 <0>         0.0511
     31 H3         -0.7636    2.0555   -0.7096 H         1 <0>         0.0537
     32 H4         -0.6369    1.9227    1.0609 H         1 <0>         0.0527
     33 H5          0.3411   -0.1510   -0.9541 H         1 <0>         0.0620
     34 H6          0.4677   -0.2838    0.8164 H         1 <0>         0.0609
     35 H7         -2.0023   -0.1688    1.0017 H         1 <0>         0.0641
     36 H8         -2.1290   -0.0361   -0.7688 H         1 <0>         0.0669
     37 H9         -1.0243   -2.2426   -1.0132 H         1 <0>         0.0766
     38 H10        -0.8977   -2.3753    0.7573 H         1 <0>         0.0736
     39 H11        -5.6425   -1.2503    1.8796 H         1 <0>         0.1435
     40 H12        -6.7676    0.2407    3.4785 H         1 <0>         0.1329
     41 H13        -8.9583   -3.0685    5.0518 H         1 <0>         0.1319
     42 H14        -7.8529   -4.5743    3.4529 H         1 <0>         0.1384
     43 H15        -2.4577   -5.1169    0.1060 H         1 <0>         0.1235
     44 H16        -1.2411   -6.9282    1.2439 H         1 <0>         0.1234
     45 H17        -1.8192   -4.9477    4.9916 H         1 <0>         0.1182
     46 H18        -3.0265   -3.1377    3.8418 H         1 <0>         0.1224
     47 H19        -0.0805   -7.6065    6.3508 H         1 <0>         0.1047
     48 H20        -0.1051   -5.8936    5.8675 H         1 <0>         0.0814
     49 H21        -1.6341   -6.7754    6.0978 H         1 <0>         0.0823
@<TRIPOS>BOND
     1    1    2 1
     2    1   30 1
     3    1   31 1
     4    1   32 1
     5    2    3 1
     6    2   33 1
     7    2   34 1
     8    3    4 1
     9    3   35 1
    10    3   36 1
    11    4    5 1
    12    4   37 1
    13    4   38 1
    14    5   10 am
    15    5    6 1
    16    6    7 1
    17    6    8 1
    18    6   22 1
    19    8    9 2
    20    8   13 1
    21    9   10 1
    22    9   12 1
    23   10   11 2
    24   13   14 2
    25   13   15 1
    26   15   20 ar
    27   15   16 ar
    28   16   17 ar
    29   16   39 1
    30   17   18 ar
    31   17   40 1
    32   18   19 ar
    33   18   21 1
    34   19   20 ar
    35   19   41 1
    36   20   42 1
    37   22   27 ar
    38   22   23 ar
    39   23   24 ar
    40   23   43 1
    41   24   25 ar
    42   24   44 1
    43   25   26 ar
    44   25   28 1
    45   26   27 ar
    46   26   45 1
    47   27   46 1
    48   28   29 1
    49   29   47 1
    50   29   48 1
    51   29   49 1
@<TRIPOS>MOLECULE
ZINC45992797
   42    44     0     0     0
SMALL
USER_CHARGES

@<TRIPOS>ATOM
      1 C1         -0.0134    1.3459   -1.3921 C.3       1 <0>        -0.1109
      2 C2          0.0034   -0.1313   -1.0941 C.ar      1 <0>        -0.0812
      3 C3         -0.1317   -1.0438   -2.1248 C.ar      1 <0>        -0.1392
      4 C4         -0.1166   -2.3978   -1.8575 C.ar      1 <0>        -0.0967
      5 C5          0.0352   -2.8448   -0.5467 C.ar      1 <0>        -0.0551
      6 C6          0.1709   -1.9213    0.4877 C.ar      1 <0>        -0.0323
      7 C7          0.1596   -0.5697    0.2085 C.ar      1 <0>        -0.1166
      8 C8          0.0518   -4.2997   -0.2531 C.2       1 <0>        -0.0255
      9 C9         -0.9272   -5.1314   -0.7496 C.2       1 <0>        -0.2476
     10 S1         -0.5064   -6.6512   -0.1717 S.3       1 <0>         0.2728
     11 C10         0.9662   -6.2202    0.7343 C.2       1 <0>        -0.1389
     12 C11         1.0544   -4.8558    0.5216 C.2       1 <0>        -0.5643
     13 S2          2.3590   -3.8854    1.2006 S.o2      1 <0>         2.6058
     14 O1          3.4887   -4.7409    1.3065 O.2       1 <0>        -0.9913
     15 O2          2.3890   -2.6717    0.4623 O.2       1 <0>        -1.0052
     16 N1          1.9197   -3.4880    2.7470 N.2       1 <0>        -1.0627
     17 C12         2.7722   -2.7121    3.5384 C.ar      1 <0>         0.3012
     18 C13         3.9849   -2.2693    3.0269 C.ar      1 <0>        -0.2439
     19 C14         4.8250   -1.5025    3.8106 C.ar      1 <0>        -0.0471
     20 C15         4.4599   -1.1756    5.1048 C.ar      1 <0>        -0.1292
     21 C16         3.2525   -1.6154    5.6179 C.ar      1 <0>        -0.0571
     22 C17         2.4049   -2.3777    4.8363 C.ar      1 <0>        -0.0861
     23 Cl1         0.8866   -2.9229    5.4777 Cl        1 <0>        -0.0799
     24 Cl2         5.5189   -0.2122    6.0865 Cl        1 <0>        -0.1054
     25 C18         1.8592   -7.0896    1.5033 C.2       1 <0>         0.5128
     26 O3          2.7594   -6.6060    2.1628 O.2       1 <0>        -0.4039
     27 O4          1.6832   -8.4268    1.4802 O.3       1 <0>        -0.3567
     28 C19         2.5910   -9.2141    2.2537 C.3       1 <0>         0.0369
     29 H1          1.0022    1.6880   -1.5910 H         1 <0>         0.0674
     30 H2         -0.6376    1.5331   -2.2659 H         1 <0>         0.0602
     31 H3         -0.4171    1.8849   -0.5350 H         1 <0>         0.0633
     32 H4         -0.2497   -0.6961   -3.1405 H         1 <0>         0.1149
     33 H5         -0.2225   -3.1094   -2.6629 H         1 <0>         0.1136
     34 H6          0.2889   -2.2625    1.5056 H         1 <0>         0.1330
     35 H7          0.2692    0.1470    1.0089 H         1 <0>         0.1186
     36 H8         -1.7720   -4.8670   -1.3683 H         1 <0>         0.1946
     37 H9          4.2712   -2.5245    2.0173 H         1 <0>         0.1123
     38 H10         5.7683   -1.1581    3.4130 H         1 <0>         0.1176
     39 H11         2.9703   -1.3593    6.6284 H         1 <0>         0.1247
     40 H12         2.5179   -8.9271    3.3027 H         1 <0>         0.0632
     41 H13         2.3387  -10.2691    2.1472 H         1 <0>         0.1012
     42 H14         3.6087   -9.0465    1.9012 H         1 <0>         0.0628
@<TRIPOS>BOND
     1    1    2 1
     2    1   29 1
     3    1   30 1
     4    1   31 1
     5    2    7 ar
     6    2    3 ar
     7    3    4 ar
     8    3   32 1
     9    4    5 ar
    10    4   33 1
    11    5    6 ar
    12    5    8 1
    13    6    7 ar
    14    6   34 1
    15    7   35 1
    16    8   12 1
    17    8    9 2
    18    9   10 1
    19    9   36 1
    20   10   11 1
    21   11   12 2
    22   11   25 1
    23   12   13 1
    24   13   14 2
    25   13   15 2
    26   13   16 1
    27   16   17 1
    28   17   22 ar
    29   17   18 ar
    30   18   19 ar
    31   18   37 1
    32   19   20 ar
    33   19   38 1
    34   20   21 ar
    35   20   24 1
    36   21   22 ar
    37   21   39 1
    38   22   23 1
    39   25   26 2
    40   25   27 1
    41   27   28 1
    42   28   40 1
    43   28   41 1
    44   28   42 1
@<TRIPOS>MOLECULE
ZINC09601207
   70    72     0     0     0
SMALL
USER_CHARGES
2-chloro-N-[1-[4-ethyl-5-[(2-ethyl-6-methyl-phenyl)carbamoylmethylsulfanyl]-1,2,4-triazol-3-yl]-3-methyl-butyl]-benzamide
@<TRIPOS>ATOM
      1 C1         -1.8054   -5.1440    0.0194 C.3       1 <0>        -0.1477
      2 C2         -2.5136   -4.4558   -1.1493 C.3       1 <0>        -0.0869
      3 C3         -3.5895   -3.5441   -0.6181 C.ar      1 <0>        -0.0865
      4 C4         -4.8923   -3.9934   -0.5241 C.ar      1 <0>        -0.1120
      5 C5         -5.8801   -3.1573   -0.0376 C.ar      1 <0>        -0.1145
      6 C6         -5.5675   -1.8690    0.3567 C.ar      1 <0>        -0.1128
      7 C7         -4.2659   -1.4159    0.2711 C.ar      1 <0>        -0.0702
      8 C8         -3.2723   -2.2513   -0.2230 C.ar      1 <0>         0.1358
      9 N1         -1.9536   -1.7931   -0.3170 N.am      1 <0>        -0.6660
     10 C9         -1.6880   -0.6272   -0.9387 C.2       1 <0>         0.5322
     11 O1         -2.5789   -0.0189   -1.4931 O.2       1 <0>        -0.5002
     12 C10        -0.2841   -0.0793   -0.9452 C.3       1 <0>        -0.1498
     13 S1         -0.2516    1.4864   -1.8526 S.3       1 <0>         0.0904
     14 C11         1.4574    1.8894   -1.7063 C.2       1 <0>         0.1446
     15 N2          2.3747    1.1862   -1.0837 N.2       1 <0>        -0.2906
     16 N3          3.5139    1.7739   -1.1778 N.2       1 <0>        -0.2701
     17 C12         3.3914    2.8816   -1.8529 C.2       1 <0>         0.1774
     18 N4          2.0771    2.9952   -2.2138 N.pl3     1 <0>        -0.4475
     19 C13         1.4620    4.0783   -2.9849 C.3       1 <0>         0.0896
     20 C14         0.8770    5.1179   -2.0268 C.3       1 <0>        -0.1722
     21 C15         4.4937    3.8571   -2.1760 C.3       1 <0>         0.2389
     22 H1          4.0643    4.7593   -2.6115 H         1 <0>         0.1111
     23 C16         5.4620    3.2198   -3.1747 C.3       1 <0>        -0.1213
     24 C17         4.7470    3.0004   -4.5094 C.3       1 <0>        -0.0944
     25 C18         4.4088    4.3549   -5.1355 C.3       1 <0>        -0.1534
     26 C19         5.6595    2.2156   -5.4539 C.3       1 <0>        -0.1450
     27 N5          5.2152    4.2027   -0.9488 N.am      1 <0>        -0.7177
     28 C20         5.8447    5.3903   -0.8489 C.2       1 <0>         0.5602
     29 O2          5.7381    6.2114   -1.7390 O.2       1 <0>        -0.5083
     30 C21         6.6643    5.6942    0.3424 C.ar      1 <0>        -0.1336
     31 C22         6.7843    4.7556    1.3693 C.ar      1 <0>        -0.0731
     32 C23         7.5554    5.0432    2.4757 C.ar      1 <0>        -0.1233
     33 C24         8.2009    6.2636    2.5760 C.ar      1 <0>        -0.0778
     34 C25         8.0827    7.2007    1.5663 C.ar      1 <0>        -0.1214
     35 C26         7.3181    6.9240    0.4493 C.ar      1 <0>         0.0158
     36 Cl1         7.1699    8.1016   -0.8176 Cl        1 <0>        -0.0285
     37 C27        -3.9250   -0.0141    0.7068 C.3       1 <0>        -0.1098
     38 H2         -1.3563   -4.3906    0.6665 H         1 <0>         0.0510
     39 H3         -2.5281   -5.7282    0.5890 H         1 <0>         0.0598
     40 H4         -1.0272   -5.8035   -0.3649 H         1 <0>         0.0620
     41 H5         -2.9627   -5.2092   -1.7965 H         1 <0>         0.0767
     42 H6         -1.7909   -3.8716   -1.7189 H         1 <0>         0.0706
     43 H7         -5.1396   -4.9989   -0.8312 H         1 <0>         0.1263
     44 H8         -6.8981   -3.5107    0.0342 H         1 <0>         0.1255
     45 H9         -6.3413   -1.2184    0.7366 H         1 <0>         0.1263
     46 H10        -1.2306   -2.3145    0.0654 H         1 <0>         0.4115
     47 H11         0.3823   -0.7935   -1.4288 H         1 <0>         0.1296
     48 H12         0.0452    0.0881    0.0803 H         1 <0>         0.1299
     49 H13         2.2161    4.5491   -3.6155 H         1 <0>         0.1056
     50 H14         0.6669    3.6728   -3.6105 H         1 <0>         0.1038
     51 H15         0.4193    5.9238   -2.6005 H         1 <0>         0.0874
     52 H16         0.1228    4.6471   -1.3962 H         1 <0>         0.0707
     53 H17         1.6721    5.5235   -1.4011 H         1 <0>         0.0651
     54 H18         6.3162    3.8801   -3.3243 H         1 <0>         0.0845
     55 H19         5.8070    2.2619   -2.7855 H         1 <0>         0.0794
     56 H20         3.8283    2.4383   -4.3413 H         1 <0>         0.0636
     57 H21         5.3300    4.8660   -5.4151 H         1 <0>         0.0637
     58 H22         3.7945    4.2018   -6.0228 H         1 <0>         0.0578
     59 H23         3.8610    4.9618   -4.4146 H         1 <0>         0.0524
     60 H24         5.9004    1.2506   -5.0078 H         1 <0>         0.0556
     61 H25         5.1501    2.0593   -6.4047 H         1 <0>         0.0571
     62 H26         6.5782    2.7777   -5.6219 H         1 <0>         0.0584
     63 H27         5.2399    3.5769   -0.2081 H         1 <0>         0.4075
     64 H28         6.2778    3.8047    1.2950 H         1 <0>         0.1350
     65 H29         7.6523    4.3160    3.2683 H         1 <0>         0.1374
     66 H30         8.7995    6.4849    3.4473 H         1 <0>         0.1389
     67 H31         8.5887    8.1511    1.6511 H         1 <0>         0.1417
     68 H32        -4.1570    0.6832   -0.0982 H         1 <0>         0.0856
     69 H33        -4.5087    0.2438    1.5905 H         1 <0>         0.0639
     70 H34        -2.8625    0.0446    0.9433 H         1 <0>         0.0545
@<TRIPOS>BOND
     1    1    2 1
     2    1   38 1
     3    1   39 1
     4    1   40 1
     5    2    3 1
     6    2   41 1
     7    2   42 1
     8    3    8 ar
     9    3    4 ar
    10    4    5 ar
    11    4   43 1
    12    5    6 ar
    13    5   44 1
    14    6    7 ar
    15    6   45 1
    16    7    8 ar
    17    7   37 1
    18    8    9 1
    19    9   10 am
    20    9   46 1
    21   10   11 2
    22   10   12 1
    23   12   13 1
    24   12   47 1
    25   12   48 1
    26   13   14 1
    27   14   18 1
    28   14   15 2
    29   15   16 1
    30   16   17 2
    31   17   18 1
    32   17   21 1
    33   18   19 1
    34   19   20 1
    35   19   49 1
    36   19   50 1
    37   20   51 1
    38   20   52 1
    39   20   53 1
    40   21   22 1
    41   21   23 1
    42   21   27 1
    43   23   24 1
    44   23   54 1
    45   23   55 1
    46   24   25 1
    47   24   26 1
    48   24   56 1
    49   25   57 1
    50   25   58 1
    51   25   59 1
    52   26   60 1
    53   26   61 1
    54   26   62 1
    55   27   28 am
    56   27   63 1
    57   28   29 2
    58   28   30 1
    59   30   35 ar
    60   30   31 ar
    61   31   32 ar
    62   31   64 1
    63   32   33 ar
    64   32   65 1
    65   33   34 ar
    66   33   66 1
    67   34   35 ar
    68   34   67 1
    69   35   36 1
    70   37   68 1
    71   37   69 1
    72   37   70 1
@<TRIPOS>MOLECULE
ZINC00877793
   55    58     0     0     0
SMALL
USER_CHARGES
N-(4-bromophenyl)-2-[[5-[[(4-fluorophenyl)amino]methyl]-4-[[(2S)-tetrahydrofuran-2-yl]methyl]-1,2,4-triazol-3-yl]sulfanyl]acetamide
@<TRIPOS>ATOM
      1 C1          3.8708   -2.4629   -2.3937 C.ar      1 <0>        -0.1696
      2 C2          4.2386   -3.1629   -3.5261 C.ar      1 <0>        -0.1024
      3 C3          5.3586   -2.7801   -4.2447 C.ar      1 <0>         0.0407
      4 C4          6.1095   -1.6921   -3.8327 C.ar      1 <0>        -0.1027
      5 C5          5.7426   -0.9862   -2.7036 C.ar      1 <0>        -0.1622
      6 C6          4.6194   -1.3681   -1.9816 C.ar      1 <0>         0.2072
      7 N1          4.2461   -0.6550   -0.8384 N.pl3     1 <0>        -0.7437
      8 C7          3.0611   -1.0588   -0.0776 C.3       1 <0>         0.2189
      9 C8          2.8803   -0.1344    1.0988 C.2       1 <0>         0.1583
     10 N2          3.3821   -0.2941    2.2905 N.2       1 <0>        -0.2565
     11 N3          3.0306    0.6802    3.0515 N.2       1 <0>        -0.2981
     12 C9          2.2830    1.5241    2.3789 C.2       1 <0>         0.1626
     13 N4          2.1594    1.0278    1.1129 N.pl3     1 <0>        -0.4455
     14 C10         1.4145    1.6203   -0.0007 C.3       1 <0>         0.0898
     15 C11        -0.0213    1.0919    0.0076 C.3       1 <0>         0.0643
     16 H1         -0.0141    0.0020    0.0029 H         1 <0>         0.0878
     17 C12        -0.7794    1.6160   -1.2309 C.3       1 <0>        -0.1478
     18 C13        -2.1892    1.9186   -0.6479 C.3       1 <0>        -0.1552
     19 C14        -1.8218    2.3876    0.7824 C.3       1 <0>         0.0482
     20 O1         -0.7076    1.5684    1.1711 O.3       1 <0>        -0.3625
     21 S1          1.5711    3.0138    2.9942 S.3       1 <0>         0.1082
     22 C15         2.1774    2.9710    4.6991 C.3       1 <0>        -0.1563
     23 C16         1.6788    4.1848    5.4402 C.2       1 <0>         0.5377
     24 O2          0.9821    4.9987    4.8716 O.2       1 <0>        -0.5012
     25 N5          2.0070    4.3660    6.7347 N.am      1 <0>        -0.6662
     26 C17         1.6259    5.5393    7.3958 C.ar      1 <0>         0.1579
     27 C18         2.4568    6.0963    8.3589 C.ar      1 <0>        -0.1361
     28 C19         2.0804    7.2568    9.0062 C.ar      1 <0>        -0.0709
     29 C20         0.8721    7.8589    8.7030 C.ar      1 <0>        -0.1041
     30 C21         0.0399    7.3031    7.7475 C.ar      1 <0>        -0.0709
     31 C22         0.4135    6.1453    7.0937 C.ar      1 <0>        -0.1145
     32 Br1         0.3569    9.4438    9.5965 Br        1 <0>        -0.0475
     33 F1          5.7196   -3.4694   -5.3491 F         1 <0>        -0.1447
     34 H2          2.9995   -2.7643   -1.8312 H         1 <0>         0.1307
     35 H3          3.6544   -4.0118   -3.8492 H         1 <0>         0.1355
     36 H4          6.9829   -1.3955   -4.3944 H         1 <0>         0.1356
     37 H5          6.3290   -0.1381   -2.3822 H         1 <0>         0.1303
     38 H6          4.7718    0.1071   -0.5490 H         1 <0>         0.4041
     39 H7          3.1894   -2.0806    0.2796 H         1 <0>         0.0999
     40 H8          2.1818   -1.0061   -0.7196 H         1 <0>         0.0798
     41 H9          1.8946    1.3529   -0.9421 H         1 <0>         0.1127
     42 H10         1.4032    2.7050    0.1060 H         1 <0>         0.1059
     43 H11        -0.3146    2.5241   -1.6148 H         1 <0>         0.0834
     44 H12        -0.8346    0.8503   -2.0047 H         1 <0>         0.0900
     45 H13        -2.8046    1.0194   -0.6205 H         1 <0>         0.0813
     46 H14        -2.6836    2.7131   -1.2069 H         1 <0>         0.0883
     47 H15        -2.6614    2.2303    1.4595 H         1 <0>         0.0901
     48 H16        -1.5336    3.4387    0.7736 H         1 <0>         0.0652
     49 H17         1.8131    2.0695    5.1918 H         1 <0>         0.1326
     50 H18         3.2674    2.9689    4.6972 H         1 <0>         0.1309
     51 H19         2.5075    3.6832    7.2083 H         1 <0>         0.4182
     52 H20         3.3982    5.6246    8.5989 H         1 <0>         0.1373
     53 H21         2.7281    7.6928    9.7524 H         1 <0>         0.1388
     54 H22        -0.9029    7.7748    7.5130 H         1 <0>         0.1378
     55 H23        -0.2368    5.7115    6.3485 H         1 <0>         0.1489
@<TRIPOS>BOND
     1    1    6 ar
     2    1    2 ar
     3    1   34 1
     4    2    3 ar
     5    2   35 1
     6    3    4 ar
     7    3   33 1
     8    4    5 ar
     9    4   36 1
    10    5    6 ar
    11    5   37 1
    12    6    7 1
    13    7    8 1
    14    7   38 1
    15    8    9 1
    16    8   39 1
    17    8   40 1
    18    9   13 1
    19    9   10 2
    20   10   11 1
    21   11   12 2
    22   12   13 1
    23   12   21 1
    24   13   14 1
    25   14   15 1
    26   14   41 1
    27   14   42 1
    28   15   16 1
    29   15   20 1
    30   15   17 1
    31   17   18 1
    32   17   43 1
    33   17   44 1
    34   18   19 1
    35   18   45 1
    36   18   46 1
    37   19   20 1
    38   19   47 1
    39   19   48 1
    40   21   22 1
    41   22   23 1
    42   22   49 1
    43   22   50 1
    44   23   24 2
    45   23   25 am
    46   25   26 1
    47   25   51 1
    48   26   31 ar
    49   26   27 ar
    50   27   28 ar
    51   27   52 1
    52   28   29 ar
    53   28   53 1
    54   29   30 ar
    55   29   32 1
    56   30   31 ar
    57   30   54 1
    58   31   55 1
@<TRIPOS>MOLECULE
ZINC36499194
   72    74     0     0     0
SMALL
USER_CHARGES

@<TRIPOS>ATOM
      1 C1          1.4394   -0.0125   -5.6901 C.3       1 <0>        -0.1681
      2 C2          0.7267    0.8797   -4.6719 C.3       1 <0>        -0.0659
      3 C3          1.4943    2.1945   -4.5203 C.3       1 <0>        -0.1694
      4 C4         -0.6947    1.1721   -5.1567 C.3       1 <0>        -0.1435
      5 C5          0.6676    0.1649   -3.3204 C.3       1 <0>        -0.1169
      6 C6          2.0208    0.2902   -2.6176 C.3       1 <0>         0.1780
      7 C7          2.1894    1.7149   -2.0859 C.3       1 <0>        -0.2350
      8 C8          2.0842   -0.6998   -1.4528 C.3       1 <0>        -0.1609
      9 N1          3.0946   -0.0061   -3.5692 N.am      1 <0>        -0.7134
     10 C9          4.3724    0.2864   -3.2559 C.2       1 <0>         0.5055
     11 O1          4.6445    0.7102   -2.1526 O.2       1 <0>        -0.4935
     12 C10         5.4631    0.0870   -4.2765 C.3       1 <0>         0.1481
     13 H1          5.3154    0.7786   -5.1060 H         1 <0>         0.1316
     14 C11         5.4182   -1.3294   -4.7893 C.ar      1 <0>        -0.0750
     15 C12         6.2160   -2.2984   -4.2097 C.ar      1 <0>        -0.1135
     16 C13         6.1785   -3.5991   -4.6765 C.ar      1 <0>        -0.0930
     17 C14         5.3397   -3.9341   -5.7273 C.ar      1 <0>         0.0890
     18 C15         4.5364   -2.9589   -6.3104 C.ar      1 <0>         0.1211
     19 C16         4.5753   -1.6581   -5.8345 C.ar      1 <0>        -0.2112
     20 O2          3.7114   -3.2828   -7.3419 O.3       1 <0>        -0.2989
     21 C17         2.7905   -2.2799   -7.7757 C.3       1 <0>         0.0127
     22 O3          5.3019   -5.2131   -6.1880 O.3       1 <0>        -0.4830
     23 N2          6.7654    0.3404   -3.6553 N.am      1 <0>        -0.5879
     24 C18         6.8718    0.4588   -2.1990 C.3       1 <0>         0.1753
     25 C19         6.9329    1.9152   -1.8165 C.2       1 <0>        -0.0217
     26 C20         5.8747    2.7233   -1.6251 C.2       1 <0>        -0.1863
     27 C21         6.3875    3.9954   -1.2823 C.2       1 <0>        -0.2291
     28 C22         7.7284    3.8886   -1.2847 C.2       1 <0>        -0.0419
     29 O4          8.0529    2.6249   -1.6033 O.3       1 <0>        -0.1668
     30 C23         7.8658    0.4647   -4.4237 C.2       1 <0>         0.5648
     31 O5          8.9108    0.8436   -3.9319 O.2       1 <0>        -0.4999
     32 C24         7.8017    0.1400   -5.8646 C.ar      1 <0>        -0.1244
     33 C25         6.5789   -0.1797   -6.4574 C.ar      1 <0>        -0.1479
     34 C26         6.5252   -0.4813   -7.8023 C.ar      1 <0>        -0.1133
     35 C27         7.6799   -0.4675   -8.5645 C.ar      1 <0>        -0.0800
     36 C28         8.8962   -0.1513   -7.9834 C.ar      1 <0>        -0.0450
     37 C29         8.9624    0.1576   -6.6391 C.ar      1 <0>        -0.0480
     38 Cl1        10.3395   -0.1367   -8.9480 Cl        1 <0>        -0.0594
     39 H2          2.5121    0.1774   -5.6516 H         1 <0>         0.0567
     40 H3          1.2471   -1.0591   -5.4536 H         1 <0>         0.0645
     41 H4          1.0669    0.2083   -6.6903 H         1 <0>         0.0708
     42 H5          1.6496    2.6400   -5.5029 H         1 <0>         0.0520
     43 H6          0.9207    2.8804   -3.8969 H         1 <0>         0.0671
     44 H7          2.4597    1.9998   -4.0530 H         1 <0>         0.0858
     45 H8         -1.2416    0.2354   -5.2647 H         1 <0>         0.0567
     46 H9         -1.2025    1.8077   -4.4313 H         1 <0>         0.0582
     47 H10        -0.6526    1.6813   -6.1195 H         1 <0>         0.0578
     48 H11        -0.1064    0.6198   -2.7023 H         1 <0>         0.0849
     49 H12         0.4354   -0.8886   -3.4765 H         1 <0>         0.0708
     50 H13         1.5552    1.8532   -1.2102 H         1 <0>         0.0610
     51 H14         3.2310    1.8788   -1.8097 H         1 <0>         0.0957
     52 H15         1.9019    2.4276   -2.8589 H         1 <0>         0.1050
     53 H16         2.0547   -1.7184   -1.8396 H         1 <0>         0.0546
     54 H17         3.0098   -0.5486   -0.8974 H         1 <0>         0.0717
     55 H18         1.2331   -0.5375   -0.7914 H         1 <0>         0.0657
     56 H19         2.8859   -0.4128   -4.4247 H         1 <0>         0.4046
     57 H20         6.8702   -2.0385   -3.3906 H         1 <0>         0.1343
     58 H21         6.8033   -4.3540   -4.2225 H         1 <0>         0.1426
     59 H22         3.9500   -0.9001   -6.2829 H         1 <0>         0.1361
     60 H23         2.1194   -2.7020   -8.5237 H         1 <0>         0.1061
     61 H24         2.2093   -1.9273   -6.9236 H         1 <0>         0.0600
     62 H25         3.3405   -1.4453   -8.2107 H         1 <0>         0.0571
     63 H26         4.6466   -5.7708   -5.7469 H         1 <0>         0.3905
     64 H27         6.0017   -0.0032   -1.7324 H         1 <0>         0.1654
     65 H28         7.7767   -0.0445   -1.8587 H         1 <0>         0.0780
     66 H29         4.8332    2.4524   -1.7164 H         1 <0>         0.1680
     67 H30         5.8130    4.8828   -1.0612 H         1 <0>         0.1415
     68 H31         8.4257    4.6832   -1.0639 H         1 <0>         0.1957
     69 H32         5.6767   -0.1913   -5.8639 H         1 <0>         0.1930
     70 H33         5.5796   -0.7291   -8.2615 H         1 <0>         0.1312
     71 H34         7.6323   -0.7047   -9.6170 H         1 <0>         0.1375
     72 H35         9.9108    0.4085   -6.1874 H         1 <0>         0.1460
@<TRIPOS>BOND
     1    1    2 1
     2    1   39 1
     3    1   40 1
     4    1   41 1
     5    2    3 1
     6    2    4 1
     7    2    5 1
     8    3   42 1
     9    3   43 1
    10    3   44 1
    11    4   45 1
    12    4   46 1
    13    4   47 1
    14    5    6 1
    15    5   48 1
    16    5   49 1
    17    6    7 1
    18    6    8 1
    19    6    9 1
    20    7   50 1
    21    7   51 1
    22    7   52 1
    23    8   53 1
    24    8   54 1
    25    8   55 1
    26    9   10 am
    27    9   56 1
    28   10   11 2
    29   10   12 1
    30   12   13 1
    31   12   14 1
    32   12   23 1
    33   14   19 ar
    34   14   15 ar
    35   15   16 ar
    36   15   57 1
    37   16   17 ar
    38   16   58 1
    39   17   18 ar
    40   17   22 1
    41   18   19 ar
    42   18   20 1
    43   19   59 1
    44   20   21 1
    45   21   60 1
    46   21   61 1
    47   21   62 1
    48   22   63 1
    49   23   24 1
    50   23   30 am
    51   24   25 1
    52   24   64 1
    53   24   65 1
    54   25   29 1
    55   25   26 2
    56   26   27 1
    57   26   66 1
    58   27   28 2
    59   27   67 1
    60   28   29 1
    61   28   68 1
    62   30   31 2
    63   30   32 1
    64   32   37 ar
    65   32   33 ar
    66   33   34 ar
    67   33   69 1
    68   34   35 ar
    69   34   70 1
    70   35   36 ar
    71   35   71 1
    72   36   37 ar
    73   36   38 1
    74   37   72 1
@<TRIPOS>MOLECULE
ZINC40342508
   63    67     0     0     0
SMALL
USER_CHARGES

@<TRIPOS>ATOM
      1 C1         -0.0173    1.4248    0.0099 C.3       1 <0>         0.0266
      2 O1          0.0021   -0.0041    0.0020 O.3       1 <0>        -0.3177
      3 C2          0.6058   -0.6071   -1.0557 C.ar      1 <0>         0.1274
      4 C3          1.1730    0.1607   -2.0624 C.ar      1 <0>        -0.2061
      5 C4          1.7865   -0.4547   -3.1363 C.ar      1 <0>        -0.0719
      6 C5          1.8352   -1.8346   -3.2086 C.ar      1 <0>        -0.1222
      7 C6          1.2702   -2.6021   -2.2068 C.ar      1 <0>        -0.0707
      8 C7          0.6609   -1.9915   -1.1277 C.ar      1 <0>        -0.1490
      9 C8          2.5046   -2.5033   -4.3815 C.3       1 <0>        -0.1036
     10 C9          3.9857   -2.7227   -4.0663 C.3       1 <0>         0.1453
     11 N1          4.6365   -3.3728   -5.2065 N.am      1 <0>        -0.5943
     12 C10         4.7573   -4.8212   -5.4173 C.3       1 <0>         0.2491
     13 H1          5.3211   -5.2733   -4.6013 H         1 <0>         0.1154
     14 C11         5.4974   -4.9930   -6.7154 C.2       1 <0>        -0.1683
     15 C12         6.0357   -5.8752   -7.6582 C.2       1 <0>         0.1132
     16 N2          6.5802   -5.1476   -8.6135 N.2       1 <0>        -0.2388
     17 N3          6.4390   -3.8939   -8.3674 N.pl3     1 <0>        -0.3307
     18 H2          6.7616   -3.1753   -8.9335 H         1 <0>         0.4549
     19 C13         5.7674   -3.7239   -7.1901 C.2       1 <0>        -0.0576
     20 C14         5.2209   -2.7455   -6.2431 C.2       1 <0>         0.5977
     21 O2          5.2891   -1.5384   -6.3752 O.2       1 <0>        -0.5124
     22 C15         6.0004   -7.3579   -7.5948 C.ar      1 <0>        -0.0048
     23 C16         6.0899   -8.0070   -6.3654 C.ar      1 <0>        -0.0832
     24 C17         6.0567   -9.3856   -6.3115 C.ar      1 <0>        -0.1100
     25 C18         5.9346  -10.1234   -7.4765 C.ar      1 <0>        -0.0263
     26 C19         5.8453   -9.4828   -8.7004 C.ar      1 <0>        -0.1079
     27 C20         5.8719   -8.1045   -8.7640 C.ar      1 <0>        -0.0773
     28 Cl1         5.8940  -11.8573   -7.4023 Cl        1 <0>        -0.0644
     29 C21         3.3898   -5.4475   -5.5114 C.ar      1 <0>        -0.0259
     30 C22         2.3819   -4.8013   -6.2022 C.ar      1 <0>        -0.2056
     31 C23         1.1221   -5.3740   -6.2908 C.ar      1 <0>         0.1433
     32 C24         0.8737   -6.5995   -5.6844 C.ar      1 <0>         0.0485
     33 C25         1.8900   -7.2462   -4.9912 C.ar      1 <0>         0.1474
     34 C26         3.1484   -6.6693   -4.9116 C.ar      1 <0>        -0.2103
     35 O3          1.6520   -8.4456   -4.3960 O.3       1 <0>        -0.2994
     36 C27         2.7429   -9.0527   -3.7007 C.3       1 <0>         0.0230
     37 O4         -0.3615   -7.1647   -5.7687 O.3       1 <0>        -0.4719
     38 O5          0.1308   -4.7370   -6.9699 O.3       1 <0>        -0.2991
     39 C28         0.4574   -3.4807   -7.5676 C.3       1 <0>         0.0245
     40 H3          1.0053    1.8021    0.0021 H         1 <0>         0.0560
     41 H4         -0.5445    1.7859   -0.8732 H         1 <0>         0.0559
     42 H5         -0.5275    1.7763    0.9067 H         1 <0>         0.1012
     43 H6          1.1347    1.2385   -2.0068 H         1 <0>         0.1283
     44 H7          2.2283    0.1425   -3.9203 H         1 <0>         0.1251
     45 H8          1.3092   -3.6798   -2.2657 H         1 <0>         0.1287
     46 H9          0.2237   -2.5913   -0.3432 H         1 <0>         0.1315
     47 H10         2.0276   -3.4646   -4.5726 H         1 <0>         0.0887
     48 H11         2.4108   -1.8695   -5.2632 H         1 <0>         0.0738
     49 H12         4.4627   -1.7615   -3.8752 H         1 <0>         0.0940
     50 H13         4.0795   -3.3566   -3.1846 H         1 <0>         0.0921
     51 H14         6.1855   -7.4323   -5.4560 H         1 <0>         0.1325
     52 H15         6.1264   -9.8898   -5.3589 H         1 <0>         0.1382
     53 H16         5.7506  -10.0626   -9.6067 H         1 <0>         0.1384
     54 H17         5.7973   -7.6055   -9.7189 H         1 <0>         0.1369
     55 H18         2.5757   -3.8489   -6.6732 H         1 <0>         0.1313
     56 H19         3.9399   -7.1732   -4.3769 H         1 <0>         0.1374
     57 H20         2.4186  -10.0018   -3.2739 H         1 <0>         0.1040
     58 H21         3.5639   -9.2285   -4.3957 H         1 <0>         0.0588
     59 H22         3.0782   -8.3909   -2.9022 H         1 <0>         0.0585
     60 H23        -0.4776   -7.7437   -6.5344 H         1 <0>         0.3841
     61 H24         0.7779   -2.7828   -6.7941 H         1 <0>         0.0579
     62 H25         1.2635   -3.6198   -8.2881 H         1 <0>         0.0547
     63 H26        -0.4199   -3.0814   -8.0765 H         1 <0>         0.1051
@<TRIPOS>BOND
     1    1    2 1
     2    1   40 1
     3    1   41 1
     4    1   42 1
     5    2    3 1
     6    3    8 ar
     7    3    4 ar
     8    4    5 ar
     9    4   43 1
    10    5    6 ar
    11    5   44 1
    12    6    7 ar
    13    6    9 1
    14    7    8 ar
    15    7   45 1
    16    8   46 1
    17    9   10 1
    18    9   47 1
    19    9   48 1
    20   10   11 1
    21   10   49 1
    22   10   50 1
    23   11   20 am
    24   11   12 1
    25   12   13 1
    26   12   14 1
    27   12   29 1
    28   14   19 2
    29   14   15 1
    30   15   16 2
    31   15   22 1
    32   16   17 1
    33   17   18 1
    34   17   19 1
    35   19   20 1
    36   20   21 2
    37   22   27 ar
    38   22   23 ar
    39   23   24 ar
    40   23   51 1
    41   24   25 ar
    42   24   52 1
    43   25   26 ar
    44   25   28 1
    45   26   27 ar
    46   26   53 1
    47   27   54 1
    48   29   34 ar
    49   29   30 ar
    50   30   31 ar
    51   30   55 1
    52   31   32 ar
    53   31   38 1
    54   32   33 ar
    55   32   37 1
    56   33   34 ar
    57   33   35 1
    58   34   56 1
    59   35   36 1
    60   36   57 1
    61   36   58 1
    62   36   59 1
    63   37   60 1
    64   38   39 1
    65   39   61 1
    66   39   62 1
    67   39   63 1
@<TRIPOS>MOLECULE
ZINC63731352
   63    66     0     0     0
SMALL
USER_CHARGES

@<TRIPOS>ATOM
      1 C1         -0.0141    1.5028    0.0153 C.3       1 <0>        -0.1179
      2 C2          0.0051   -0.0040    0.0051 C.ar      1 <0>        -0.1015
      3 C3          0.2469   -0.6990    1.1759 C.ar      1 <0>        -0.0673
      4 C4          0.2653   -2.0798    1.1702 C.ar      1 <0>        -0.1581
      5 C5          0.0401   -2.7716   -0.0134 C.ar      1 <0>         0.1932
      6 C6         -0.2030   -2.0717   -1.1879 C.ar      1 <0>        -0.1356
      7 C7         -0.2249   -0.6896   -1.1749 C.ar      1 <0>        -0.0010
      8 Cl1        -0.5351    0.1869   -2.6409 Cl        1 <0>        -0.0575
      9 N1          0.0586   -4.1694   -0.0221 N.pl3     1 <0>        -0.5685
     10 C8          0.1787   -4.9285    1.2260 C.3       1 <0>         0.2932
     11 H1          0.0560   -4.2457    2.0667 H         1 <0>         0.1913
     12 N2         -0.8190   -5.9976    1.3344 N.2       1 <0>        -0.3061
     13 C9         -1.2928   -6.5586    0.2700 C.2       1 <0>         0.2323
     14 C10        -0.9287   -6.0576   -1.0998 C.2       1 <0>        -0.2296
     15 C11        -1.5754   -6.8573   -1.9534 C.2       1 <0>         0.0570
     16 N3         -2.2923   -7.7462   -1.2332 N.2       1 <0>        -0.1142
     17 N4         -2.1525   -7.5811    0.0387 N.2       1 <0>        -0.1161
     18 C12        -1.5152   -6.7799   -3.4572 C.3       1 <0>        -0.0998
     19 C13        -0.0435   -4.8859   -1.2283 C.2       1 <0>         0.4647
     20 N5          0.5728   -4.5562   -2.3303 N.2       1 <0>        -0.6521
     21 S1          1.8345   -5.6650    1.3070 S.3       1 <0>        -0.0634
     22 C14         1.9135   -6.7296   -0.1596 C.3       1 <0>        -0.1583
     23 C15         3.2565   -7.4110   -0.2139 C.2       1 <0>         0.5383
     24 O1          4.0794   -7.1993    0.6515 O.2       1 <0>        -0.5085
     25 N6          3.5433   -8.2556   -1.2243 N.am      1 <0>        -0.7233
     26 C16         4.8489   -8.9181   -1.2771 C.3       1 <0>         0.1243
     27 C17         4.9155   -9.8159   -2.5142 C.3       1 <0>        -0.0860
     28 C18         6.2586  -10.4974   -2.5685 C.ar      1 <0>        -0.0841
     29 C19         7.3125   -9.8928   -3.2281 C.ar      1 <0>        -0.1077
     30 C20         8.5465  -10.5138   -3.2808 C.ar      1 <0>        -0.1702
     31 C21         8.7292  -11.7447   -2.6712 C.ar      1 <0>         0.1015
     32 C22         7.6685  -12.3530   -2.0069 C.ar      1 <0>         0.1024
     33 C23         6.4355  -11.7229   -1.9538 C.ar      1 <0>        -0.1653
     34 O2          7.8429  -13.5610   -1.4071 O.3       1 <0>        -0.3053
     35 C24         6.7100  -14.1255   -0.7438 C.3       1 <0>         0.0254
     36 O3          9.9423  -12.3572   -2.7225 O.3       1 <0>        -0.3060
     37 C25        10.9847  -11.6744   -3.4220 C.3       1 <0>         0.0253
     38 H2         -1.0257    1.8518    0.2224 H         1 <0>         0.0753
     39 H3          0.6620    1.8696    0.7876 H         1 <0>         0.0724
     40 H4          0.3075    1.8769   -0.9567 H         1 <0>         0.0734
     41 H5          0.4220   -0.1612    2.0960 H         1 <0>         0.1412
     42 H6          0.4549   -2.6215    2.0850 H         1 <0>         0.1308
     43 H7         -0.3784   -2.6066   -2.1096 H         1 <0>         0.1439
     44 H8         -0.7010   -7.4067   -3.8209 H         1 <0>         0.0995
     45 H9         -2.4584   -7.1296   -3.8770 H         1 <0>         0.1016
     46 H10        -1.3427   -5.7475   -3.7613 H         1 <0>         0.0823
     47 H11         0.4593   -5.0945   -3.1292 H         1 <0>         0.3644
     48 H12         1.1264   -7.4817   -0.1055 H         1 <0>         0.1084
     49 H13         1.7767   -6.1243   -1.0557 H         1 <0>         0.1191
     50 H14         2.8852   -8.4249   -1.9165 H         1 <0>         0.4017
     51 H15         5.6360   -8.1660   -1.3312 H         1 <0>         0.0757
     52 H16         4.9857   -9.5233   -0.3810 H         1 <0>         0.0744
     53 H17         4.1285  -10.5680   -2.4601 H         1 <0>         0.0804
     54 H18         4.7787   -9.2107   -3.4103 H         1 <0>         0.0826
     55 H19         7.1714   -8.9335   -3.7036 H         1 <0>         0.1280
     56 H20         9.3680  -10.0398   -3.7973 H         1 <0>         0.1373
     57 H21         5.6117  -12.1911   -1.4356 H         1 <0>         0.1358
     58 H22         6.3783  -13.4515    0.0461 H         1 <0>         0.0553
     59 H23         5.9026  -14.2689   -1.4619 H         1 <0>         0.0551
     60 H24         6.9849  -15.0867   -0.3095 H         1 <0>         0.1024
     61 H25        11.8967  -12.2705   -3.3870 H         1 <0>         0.1021
     62 H26        10.6881  -11.5247   -4.4601 H         1 <0>         0.0556
     63 H27        11.1645  -10.7074   -2.9524 H         1 <0>         0.0558
@<TRIPOS>BOND
     1    1    2 1
     2    1   38 1
     3    1   39 1
     4    1   40 1
     5    2    7 ar
     6    2    3 ar
     7    3    4 ar
     8    3   41 1
     9    4    5 ar
    10    4   42 1
    11    5    6 ar
    12    5    9 1
    13    6    7 ar
    14    6   43 1
    15    7    8 1
    16    9   19 1
    17    9   10 1
    18   10   11 1
    19   10   12 1
    20   10   21 1
    21   12   13 2
    22   13   17 1
    23   13   14 1
    24   14   15 2
    25   14   19 1
    26   15   16 1
    27   15   18 1
    28   16   17 2
    29   18   44 1
    30   18   45 1
    31   18   46 1
    32   19   20 2
    33   20   47 1
    34   21   22 1
    35   22   23 1
    36   22   48 1
    37   22   49 1
    38   23   24 2
    39   23   25 am
    40   25   26 1
    41   25   50 1
    42   26   27 1
    43   26   51 1
    44   26   52 1
    45   27   28 1
    46   27   53 1
    47   27   54 1
    48   28   33 ar
    49   28   29 ar
    50   29   30 ar
    51   29   55 1
    52   30   31 ar
    53   30   56 1
    54   31   32 ar
    55   31   36 1
    56   32   33 ar
    57   32   34 1
    58   33   57 1
    59   34   35 1
    60   35   58 1
    61   35   59 1
    62   35   60 1
    63   36   37 1
    64   37   61 1
    65   37   62 1
    66   37   63 1
@<TRIPOS>MOLECULE
ZINC01329287
   71    74     0     0     0
SMALL
USER_CHARGES
1-[2-(3,4-dimethoxyphenyl)ethyl]-1-[(6-ethyl-2-oxo-1H-quinolin-3-yl)methyl]-3-(3-methoxyphenyl)thiourea
@<TRIPOS>ATOM
      1 C1          7.9174    7.0731    5.9199 C.3       1 <0>        -0.1493
      2 C2          6.5436    6.4477    6.1700 C.3       1 <0>        -0.0843
      3 C3          5.4831    7.2781    5.4942 C.ar      1 <0>        -0.1115
      4 C4          4.8793    8.3191    6.1866 C.ar      1 <0>        -0.0567
      5 C5          3.9067    9.0908    5.5887 C.ar      1 <0>        -0.1632
      6 C6          3.5250    8.8263    4.2774 C.ar      1 <0>         0.1819
      7 C7          4.1393    7.7701    3.5786 C.ar      1 <0>        -0.1326
      8 C8          5.1240    6.9997    4.2060 C.ar      1 <0>        -0.0458
      9 C9          3.7308    7.4995    2.1990 C.2       1 <0>         0.0311
     10 C10         2.7714    8.2798    1.6427 C.2       1 <0>        -0.2296
     11 C11         2.1909    9.3305    2.3850 C.2       1 <0>         0.5457
     12 O1          1.3337   10.0230    1.8641 O.2       1 <0>        -0.5376
     13 N1          2.5557    9.5831    3.6542 N.am      1 <0>        -0.6302
     14 H1          2.1334   10.3106    4.1372 H         1 <0>         0.4151
     15 C12         2.3279    8.0281    0.2246 C.3       1 <0>         0.1715
     16 N2          1.1623    7.1406    0.2277 N.pl3     1 <0>        -0.5531
     17 C13        -0.1817    7.6972    0.4018 C.3       1 <0>         0.1016
     18 C14        -0.5283    7.7368    1.8915 C.3       1 <0>        -0.0946
     19 C15        -1.9107    8.3093    2.0706 C.ar      1 <0>        -0.0826
     20 C16        -2.0768    9.6716    2.2374 C.ar      1 <0>        -0.1003
     21 C17        -3.3434   10.2023    2.3963 C.ar      1 <0>        -0.1708
     22 C18        -4.4490    9.3671    2.4000 C.ar      1 <0>         0.1006
     23 C19        -4.2814    7.9953    2.2378 C.ar      1 <0>         0.1006
     24 C20        -3.0096    7.4704    2.0733 C.ar      1 <0>        -0.1703
     25 O2         -5.3634    7.1715    2.2403 O.3       1 <0>        -0.3053
     26 C21        -5.1158    5.7747    2.0681 C.3       1 <0>         0.0262
     27 O3         -5.6953    9.8870    2.5614 O.3       1 <0>        -0.3066
     28 C22        -5.7914   11.3036    2.7224 C.3       1 <0>         0.0257
     29 C23         1.3263    5.8122    0.0705 C.2       1 <0>         0.5600
     30 S1          2.9022    5.1475   -0.0072 S.2       1 <0>        -0.6190
     31 N3          0.2499    5.0069   -0.0256 N.pl3     1 <0>        -0.6317
     32 C24         0.4167    3.6189   -0.0731 C.ar      1 <0>         0.1668
     33 C25         1.3630    3.0038    0.7373 C.ar      1 <0>        -0.1083
     34 C26         1.5277    1.6333    0.6902 C.ar      1 <0>        -0.0705
     35 C27         0.7523    0.8703   -0.1624 C.ar      1 <0>        -0.2029
     36 C28        -0.1907    1.4797   -0.9779 C.ar      1 <0>         0.1340
     37 C29        -0.3629    2.8544   -0.9295 C.ar      1 <0>        -0.1607
     38 O4         -0.9484    0.7288   -1.8198 O.3       1 <0>        -0.3181
     39 C30        -0.7211   -0.6820   -1.8133 C.3       1 <0>         0.0277
     40 H2          7.9352    8.0848    6.3250 H         1 <0>         0.0555
     41 H3          8.6844    6.4724    6.4087 H         1 <0>         0.0596
     42 H4          8.1112    7.1075    4.8478 H         1 <0>         0.0570
     43 H5          6.3498    6.4132    7.2420 H         1 <0>         0.0734
     44 H6          6.5258    5.4359    5.7648 H         1 <0>         0.0748
     45 H7          5.1748    8.5260    7.2046 H         1 <0>         0.1321
     46 H8          3.4426    9.8979    6.1361 H         1 <0>         0.1339
     47 H9          5.5986    6.1885    3.6740 H         1 <0>         0.1375
     48 H10         4.1833    6.6960    1.6369 H         1 <0>         0.1670
     49 H11         3.1395    7.5599   -0.3323 H         1 <0>         0.1272
     50 H12         2.0627    8.9745   -0.2466 H         1 <0>         0.1034
     51 H13        -0.2119    8.7079   -0.0052 H         1 <0>         0.1078
     52 H14        -0.9044    7.0724   -0.1229 H         1 <0>         0.0746
     53 H15        -0.4980    6.7261    2.2985 H         1 <0>         0.0666
     54 H16         0.1945    8.3615    2.4162 H         1 <0>         0.0933
     55 H17        -1.2155   10.3232    2.2391 H         1 <0>         0.1361
     56 H18        -3.4707   11.2674    2.5220 H         1 <0>         0.1363
     57 H19        -2.8767    6.4060    1.9475 H         1 <0>         0.1312
     58 H20        -6.0613    5.2327    2.0895 H         1 <0>         0.1022
     59 H21        -4.6233    5.6084    1.1100 H         1 <0>         0.0535
     60 H22        -4.4740    5.4175    2.8734 H         1 <0>         0.0541
     61 H23        -5.3794   11.7981    1.8427 H         1 <0>         0.0556
     62 H24        -6.8375   11.5856    2.8412 H         1 <0>         0.1016
     63 H25        -5.2305   11.6077    3.6062 H         1 <0>         0.0551
     64 H26        -0.6406    5.3899   -0.0617 H         1 <0>         0.4063
     65 H27         1.9703    3.5978    1.4041 H         1 <0>         0.1462
     66 H28         2.2639    1.1570    1.3206 H         1 <0>         0.1307
     67 H29         0.8836   -0.2011   -0.1972 H         1 <0>         0.1296
     68 H30        -1.0991    3.3300   -1.5605 H         1 <0>         0.1304
     69 H31        -1.3897   -1.1610   -2.5285 H         1 <0>         0.1007
     70 H32         0.3133   -0.8846   -2.0908 H         1 <0>         0.0573
     71 H33        -0.9135   -1.0764   -0.8155 H         1 <0>         0.0564
@<TRIPOS>BOND
     1    1    2 1
     2    1   40 1
     3    1   41 1
     4    1   42 1
     5    2    3 1
     6    2   43 1
     7    2   44 1
     8    3    8 ar
     9    3    4 ar
    10    4    5 ar
    11    4   45 1
    12    5    6 ar
    13    5   46 1
    14    6   13 1
    15    6    7 ar
    16    7    8 ar
    17    7    9 1
    18    8   47 1
    19    9   10 2
    20    9   48 1
    21   10   11 1
    22   10   15 1
    23   11   12 2
    24   11   13 am
    25   13   14 1
    26   15   16 1
    27   15   49 1
    28   15   50 1
    29   16   17 1
    30   16   29 1
    31   17   18 1
    32   17   51 1
    33   17   52 1
    34   18   19 1
    35   18   53 1
    36   18   54 1
    37   19   24 ar
    38   19   20 ar
    39   20   21 ar
    40   20   55 1
    41   21   22 ar
    42   21   56 1
    43   22   23 ar
    44   22   27 1
    45   23   24 ar
    46   23   25 1
    47   24   57 1
    48   25   26 1
    49   26   58 1
    50   26   59 1
    51   26   60 1
    52   27   28 1
    53   28   61 1
    54   28   62 1
    55   28   63 1
    56   29   30 2
    57   29   31 1
    58   31   32 1
    59   31   64 1
    60   32   37 ar
    61   32   33 ar
    62   33   34 ar
    63   33   65 1
    64   34   35 ar
    65   34   66 1
    66   35   36 ar
    67   35   67 1
    68   36   37 ar
    69   36   38 1
    70   37   68 1
    71   38   39 1
    72   39   69 1
    73   39   70 1
    74   39   71 1
@<TRIPOS>MOLECULE
ZINC20644103
   69    72     0     0     0
SMALL
USER_CHARGES
2-[2-[2-(1-cyclohexenyl)ethylamino]-2-oxo-ethyl]sulfanyl-3-(2-furylmethyl)-N-(2-methoxyethyl)-4-oxo-quinazoline-7-carboxamide
@<TRIPOS>ATOM
      1 C1          4.6045    3.9067    1.3025 C.3       1 <0>         0.0271
      2 O1          3.5649    2.9311    1.2049 O.3       1 <0>        -0.3895
      3 C2          3.5713    2.1956   -0.0202 C.3       1 <0>         0.0454
      4 C3          2.4220    1.1856   -0.0147 C.3       1 <0>         0.1232
      5 N1          1.1435    1.9007    0.0013 N.am      1 <0>        -0.7283
      6 C4         -0.0144    1.2110    0.0087 C.2       1 <0>         0.5582
      7 O2          0.0021   -0.0041    0.0020 O.2       1 <0>        -0.5333
      8 C5         -1.3066    1.9338    0.0188 C.ar      1 <0>        -0.0824
      9 C6         -1.3196    3.3343    0.0322 C.ar      1 <0>        -0.1132
     10 C7         -2.5011    4.0185    0.0353 C.ar      1 <0>        -0.0390
     11 C8         -3.7082    3.3204    0.0377 C.ar      1 <0>        -0.1809
     12 C9         -3.7127    1.9073    0.0300 C.ar      1 <0>         0.1657
     13 C10        -2.4966    1.2182    0.0205 C.ar      1 <0>        -0.0517
     14 N2         -4.8968    1.2511    0.0325 N.2       1 <0>        -0.5309
     15 C11        -6.0378    1.8950    0.0419 C.2       1 <0>         0.3582
     16 N3         -6.1238    3.2579    0.0492 N.am      1 <0>        -0.5261
     17 C12        -5.0041    4.0174    0.0476 C.2       1 <0>         0.5573
     18 O3         -5.0665    5.2328    0.0541 O.2       1 <0>        -0.4951
     19 C13        -7.4392    3.9028    0.0594 C.3       1 <0>         0.1726
     20 C14        -7.8827    4.1168    1.4837 C.2       1 <0>        -0.0580
     21 C15        -7.6293    5.2059    2.2314 C.2       1 <0>        -0.1662
     22 C16        -8.2291    4.9855    3.4926 C.2       1 <0>        -0.2211
     23 C17        -8.8061    3.7715    3.4429 C.2       1 <0>        -0.0203
     24 O4         -8.5931    3.2499    2.2237 O.3       1 <0>        -0.1602
     25 S1         -7.5307    0.9591    0.0444 S.3       1 <0>         0.0944
     26 C18        -6.8502   -0.7181    0.0319 C.3       1 <0>        -0.1555
     27 C19        -7.9779   -1.7177    0.0323 C.2       1 <0>         0.5320
     28 O5         -9.1284   -1.3341    0.0402 O.2       1 <0>        -0.5284
     29 N4         -7.7079   -3.0381    0.0237 N.am      1 <0>        -0.7337
     30 C20        -8.8042   -4.0100    0.0241 C.3       1 <0>         0.1277
     31 C21        -8.2289   -5.4277    0.0135 C.3       1 <0>        -0.0983
     32 C22        -9.3566   -6.4274    0.0139 C.2       1 <0>        -0.1205
     33 C23        -9.7505   -6.8984   -1.1257 C.2       1 <0>        -0.1467
     34 C24       -10.8651   -7.8905   -1.2854 C.3       1 <0>        -0.0957
     35 C25       -11.1643   -8.5673    0.0541 C.3       1 <0>        -0.1237
     36 C26       -11.3153   -7.4790    1.1244 C.3       1 <0>        -0.1219
     37 C27        -9.9490   -6.8194    1.3358 C.3       1 <0>        -0.0832
     38 H1          4.5303    4.4261    2.2693 H         1 <0>         0.0897
     39 H2          4.5008    4.6359    0.4855 H         1 <0>         0.0439
     40 H3          5.5826    3.4090    1.2278 H         1 <0>         0.0441
     41 H4          3.4460    2.8891   -0.8648 H         1 <0>         0.0594
     42 H5          4.5278    1.6621   -0.1226 H         1 <0>         0.0697
     43 H6          2.4803    0.5589   -0.9168 H         1 <0>         0.0861
     44 H7          2.4974    0.5492    0.8793 H         1 <0>         0.0793
     45 H8          1.1285    3.0006    0.0073 H         1 <0>         0.4246
     46 H9         -0.3864    3.8780    0.0355 H         1 <0>         0.1362
     47 H10        -2.5008    5.0985    0.0415 H         1 <0>         0.1453
     48 H11        -2.4826    0.1383    0.0149 H         1 <0>         0.1533
     49 H12        -7.3758    4.8732   -0.4546 H         1 <0>         0.1395
     50 H13        -8.1666    3.2604   -0.4585 H         1 <0>         0.1174
     51 H14        -7.0758    6.0816    1.9260 H         1 <0>         0.1524
     52 H15        -8.2216    5.6606    4.3356 H         1 <0>         0.1513
     53 H16        -9.3489    3.2968    4.2469 H         1 <0>         0.2065
     54 H17        -6.2365   -0.8580   -0.8702 H         1 <0>         0.1330
     55 H18        -6.2272   -0.8677    0.9261 H         1 <0>         0.1329
     56 H19        -6.6644   -3.3861    0.0164 H         1 <0>         0.4269
     57 H20        -9.4179   -3.8701    0.9262 H         1 <0>         0.0700
     58 H21        -9.4272   -3.8604   -0.8700 H         1 <0>         0.0697
     59 H22        -7.6152   -5.5676   -0.8886 H         1 <0>         0.0759
     60 H23        -7.6059   -5.5773    0.9076 H         1 <0>         0.0774
     61 H24        -9.2597   -6.5727   -2.0547 H         1 <0>         0.1053
     62 H25       -11.7694   -7.3725   -1.6375 H         1 <0>         0.0744
     63 H26       -10.5721   -8.6562   -2.0188 H         1 <0>         0.0718
     64 H27       -12.0961   -9.1461   -0.0276 H         1 <0>         0.0648
     65 H28       -10.3359   -9.2413    0.3175 H         1 <0>         0.0638
     66 H29       -12.0470   -6.7307    0.7858 H         1 <0>         0.0651
     67 H30       -11.6638   -7.9339    2.0633 H         1 <0>         0.0661
     68 H31        -9.2790   -7.5303    1.8415 H         1 <0>         0.0742
     69 H32       -10.0732   -5.9236    1.9620 H         1 <0>         0.0720
@<TRIPOS>BOND
     1    1    2 1
     2    1   38 1
     3    1   39 1
     4    1   40 1
     5    2    3 1
     6    3    4 1
     7    3   41 1
     8    3   42 1
     9    4    5 1
    10    4   43 1
    11    4   44 1
    12    5    6 am
    13    5   45 1
    14    6    7 2
    15    6    8 1
    16    8   13 ar
    17    8    9 ar
    18    9   10 ar
    19    9   46 1
    20   10   11 ar
    21   10   47 1
    22   11   17 1
    23   11   12 ar
    24   12   13 ar
    25   12   14 1
    26   13   48 1
    27   14   15 2
    28   15   16 1
    29   15   25 1
    30   16   17 am
    31   16   19 1
    32   17   18 2
    33   19   20 1
    34   19   49 1
    35   19   50 1
    36   20   24 1
    37   20   21 2
    38   21   22 1
    39   21   51 1
    40   22   23 2
    41   22   52 1
    42   23   24 1
    43   23   53 1
    44   25   26 1
    45   26   27 1
    46   26   54 1
    47   26   55 1
    48   27   28 2
    49   27   29 am
    50   29   30 1
    51   29   56 1
    52   30   31 1
    53   30   57 1
    54   30   58 1
    55   31   32 1
    56   31   59 1
    57   31   60 1
    58   32   37 1
    59   32   33 2
    60   33   34 1
    61   33   61 1
    62   34   35 1
    63   34   62 1
    64   34   63 1
    65   35   36 1
    66   35   64 1
    67   35   65 1
    68   36   37 1
    69   36   66 1
    70   36   67 1
    71   37   68 1
    72   37   69 1
@<TRIPOS>MOLECULE
ZINC36591593
   68    71     0     0     0
SMALL
USER_CHARGES

@<TRIPOS>ATOM
      1 C1         -2.0992   -0.2491   -1.3755 C.3       1 <0>        -0.1269
      2 C2         -1.3235   -1.5404   -1.3328 C.ar      1 <0>        -0.0272
      3 C3         -0.5010   -1.8879   -2.3881 C.ar      1 <0>        -0.1399
      4 C4          0.2105   -3.0724   -2.3489 C.ar      1 <0>        -0.0195
      5 C5          0.1000   -3.9092   -1.2542 C.ar      1 <0>        -0.6654
      6 C6         -0.7218   -3.5613   -0.1985 C.ar      1 <0>        -0.0187
      7 C7         -1.4301   -2.3748   -0.2358 C.ar      1 <0>        -0.1407
      8 S1          1.0061   -5.4196   -1.2048 S.o2      1 <0>         2.4692
      9 O1          0.2512   -6.2675   -0.3501 O.2       1 <0>        -0.9216
     10 O2          1.2124   -5.7634   -2.5680 O.2       1 <0>        -0.9322
     11 C8          2.5855   -4.9903   -0.4227 C.3       1 <0>        -0.3536
     12 N1          2.3480   -4.5758    0.9622 N.am      1 <0>        -0.7038
     13 C9          2.4640   -5.4711    1.9629 C.2       1 <0>         0.5228
     14 O3          2.7650   -6.6199    1.7169 O.2       1 <0>        -0.4879
     15 C10         2.2196   -5.0446    3.3875 C.3       1 <0>         0.1751
     16 H1          1.1470   -4.9639    3.5637 H         1 <0>         0.1393
     17 C11         2.8706   -3.7074    3.6303 C.ar      1 <0>        -0.1043
     18 C12         4.2294   -3.6361    3.8754 C.ar      1 <0>        -0.0918
     19 C13         4.8312   -2.4117    4.0982 C.ar      1 <0>        -0.0978
     20 C14         4.0731   -1.2523    4.0767 C.ar      1 <0>         0.0436
     21 C15         2.7043   -1.3241    3.8298 C.ar      1 <0>         0.0355
     22 C16         2.1089   -2.5541    3.6017 C.ar      1 <0>        -0.0961
     23 O4          2.1885   -0.0607    3.8609 O.3       1 <0>        -0.3057
     24 C17         3.1778    0.7420    4.5319 C.3       1 <0>         0.2126
     25 O5          4.4148    0.0562    4.2624 O.3       1 <0>        -0.3062
     26 N2          2.7909   -6.0386    4.2996 N.am      1 <0>        -0.5850
     27 C18         4.0285   -6.5240    4.0779 C.2       1 <0>         0.5114
     28 O6          4.6346   -6.2052    3.0769 O.2       1 <0>        -0.4961
     29 C19         4.6592   -7.4630    5.0737 C.3       1 <0>         0.0936
     30 H2          3.8879   -7.9916    5.6338 H         1 <0>         0.1344
     31 C20         5.5787   -6.6809    6.0377 C.3       1 <0>        -0.1229
     32 C21         6.9526   -6.8146    5.3409 C.3       1 <0>        -0.1578
     33 C22         6.8286   -8.0761    4.5151 C.2       1 <0>         0.5286
     34 O7          7.7605   -8.6892    4.0391 O.2       1 <0>        -0.5251
     35 N3          5.5335   -8.4203    4.3859 N.am      1 <0>        -0.7122
     36 C23         2.0168   -6.5050    5.4527 C.3       1 <0>         0.1600
     37 C24         0.6859   -5.7527    5.5115 C.3       1 <0>        -0.1634
     38 C25         1.7491   -8.0050    5.3142 C.3       1 <0>        -0.1785
     39 C26         2.8072   -6.2444    6.7366 C.3       1 <0>        -0.1868
     40 H3         -1.4996    0.5495   -0.9388 H         1 <0>         0.0804
     41 H4         -2.3358   -0.0015   -2.4103 H         1 <0>         0.0737
     42 H5         -3.0233   -0.3614   -0.8084 H         1 <0>         0.0737
     43 H6         -0.4146   -1.2341   -3.2434 H         1 <0>         0.1339
     44 H7          0.8526   -3.3442   -3.1737 H         1 <0>         0.1420
     45 H8         -0.8085   -4.2153    0.6566 H         1 <0>         0.1391
     46 H9         -2.0692   -2.1012    0.5907 H         1 <0>         0.1336
     47 H10         3.2445   -5.8585   -0.4342 H         1 <0>         0.1573
     48 H11         3.0524   -4.1726   -0.9718 H         1 <0>         0.1443
     49 H12         2.1072   -3.6569    1.1589 H         1 <0>         0.4102
     50 H13         4.8218   -4.5389    3.8933 H         1 <0>         0.1556
     51 H14         5.8928   -2.3589    4.2895 H         1 <0>         0.1382
     52 H15         1.0485   -2.6124    3.4055 H         1 <0>         0.1400
     53 H16         3.1999    1.7494    4.1161 H         1 <0>         0.1342
     54 H17         2.9828    0.7733    5.6039 H         1 <0>         0.0874
     55 H18         5.2753   -5.6361    6.1046 H         1 <0>         0.0958
     56 H19         5.5947   -7.1448    7.0239 H         1 <0>         0.1019
     57 H20         7.1396   -5.9546    4.6979 H         1 <0>         0.1080
     58 H21         7.7467   -6.9192    6.0802 H         1 <0>         0.1086
     59 H22         5.2182   -9.1995    3.9017 H         1 <0>         0.4154
     60 H23         0.0855   -6.0076    4.6381 H         1 <0>         0.0690
     61 H24         0.1485   -6.0352    6.4168 H         1 <0>         0.0820
     62 H25         0.8754   -4.6793    5.5214 H         1 <0>         0.0699
     63 H26         2.6966   -8.5438    5.3037 H         1 <0>         0.0689
     64 H27         1.1468   -8.3458    6.1563 H         1 <0>         0.0787
     65 H28         1.2132   -8.1941    4.3841 H         1 <0>         0.0724
     66 H29         3.1601   -5.2131    6.7429 H         1 <0>         0.0699
     67 H30         2.1637   -6.4135    7.6000 H         1 <0>         0.0788
     68 H31         3.6607   -6.9208    6.7815 H         1 <0>         0.0776
@<TRIPOS>BOND
     1    1    2 1
     2    1   40 1
     3    1   41 1
     4    1   42 1
     5    2    7 ar
     6    2    3 ar
     7    3    4 ar
     8    3   43 1
     9    4    5 ar
    10    4   44 1
    11    5    6 ar
    12    5    8 1
    13    6    7 ar
    14    6   45 1
    15    7   46 1
    16    8    9 2
    17    8   10 2
    18    8   11 1
    19   11   12 1
    20   11   47 1
    21   11   48 1
    22   12   13 am
    23   12   49 1
    24   13   14 2
    25   13   15 1
    26   15   16 1
    27   15   17 1
    28   15   26 1
    29   17   22 ar
    30   17   18 ar
    31   18   19 ar
    32   18   50 1
    33   19   20 ar
    34   19   51 1
    35   20   25 1
    36   20   21 ar
    37   21   22 ar
    38   21   23 1
    39   22   52 1
    40   23   24 1
    41   24   25 1
    42   24   53 1
    43   24   54 1
    44   26   27 am
    45   26   36 1
    46   27   28 2
    47   27   29 1
    48   29   30 1
    49   29   35 1
    50   29   31 1
    51   31   32 1
    52   31   55 1
    53   31   56 1
    54   32   33 1
    55   32   57 1
    56   32   58 1
    57   33   34 2
    58   33   35 am
    59   35   59 1
    60   36   37 1
    61   36   38 1
    62   36   39 1
    63   37   60 1
    64   37   61 1
    65   37   62 1
    66   38   63 1
    67   38   64 1
    68   38   65 1
    69   39   66 1
    70   39   67 1
    71   39   68 1
@<TRIPOS>MOLECULE
ZINC41022405
   70    73     0     0     0
SMALL
USER_CHARGES

@<TRIPOS>ATOM
      1 C1         -1.5141   -5.8005    7.6860 C.3       1 <0>        -0.1526
      2 C2         -1.2674   -5.8045    6.1760 C.3       1 <0>         0.0569
      3 O1         -0.3816   -4.7362    5.8351 O.3       1 <0>        -0.3203
      4 C3         -0.0750   -4.5846    4.5190 C.ar      1 <0>         0.1027
      5 C4         -0.6854   -5.3850    3.5671 C.ar      1 <0>        -0.1899
      6 C5         -0.3726   -5.2296    2.2294 C.ar      1 <0>        -0.0953
      7 C6          0.5491   -4.2764    1.8371 C.ar      1 <0>        -0.1356
      8 C7          1.1628   -3.4743    2.7804 C.ar      1 <0>        -0.0953
      9 C8          0.8494   -3.6201    4.1241 C.ar      1 <0>         0.1161
     10 N1          1.4654   -2.8041    5.0814 N.am      1 <0>        -0.6511
     11 C9          2.6813   -2.2772    4.8359 C.2       1 <0>         0.5937
     12 O2          3.2266   -2.4768    3.7653 O.2       1 <0>        -0.5109
     13 C10         3.3244   -1.4923    5.8219 C.2       1 <0>        -0.2895
     14 C11         3.8852   -2.1150    6.8687 C.2       1 <0>         0.2176
     15 N2          4.5381   -1.4297    7.8640 N.pl3     1 <0>        -0.6100
     16 C12         4.8345   -0.0937    7.6315 C.2       1 <0>         0.5058
     17 N3          5.6195    0.7188    8.2853 N.2       1 <0>        -0.5458
     18 C13         5.6071    1.9239    7.6969 C.2       1 <0>         0.2177
     19 N4          4.8039    1.8841    6.6556 N.2       1 <0>        -0.2629
     20 N5          4.2897    0.5897    6.5950 N.pl3     1 <0>        -0.3790
     21 C14         3.3522    0.0022    5.6433 C.3       1 <0>         0.2876
     22 H1          3.6650    0.2410    4.6268 H         1 <0>         0.1118
     23 C15         1.9755    0.5634    5.8902 C.ar      1 <0>        -0.1056
     24 C16         1.4155    0.4865    7.1519 C.ar      1 <0>        -0.0880
     25 C17         0.1530    0.9998    7.3835 C.ar      1 <0>        -0.1741
     26 C18        -0.5539    1.5933    6.3501 C.ar      1 <0>         0.1201
     27 C19         0.0099    1.6711    5.0803 C.ar      1 <0>         0.1038
     28 C20         1.2778    1.1589    4.8560 C.ar      1 <0>        -0.1443
     29 O3         -0.6799    2.2527    4.0628 O.3       1 <0>        -0.3026
     30 C21        -0.0816    2.2102    2.7658 C.3       1 <0>         0.0241
     31 O4         -1.7962    2.0983    6.5762 O.3       1 <0>        -0.2962
     32 C22        -2.3618    1.8752    7.8694 C.3       1 <0>         0.0766
     33 C23        -1.8327    2.9276    8.8458 C.3       1 <0>        -0.1836
     34 C24        -3.8859    1.9789    7.7844 C.3       1 <0>        -0.1481
     35 S1          6.5188    3.3334    8.2325 S.3       1 <0>         0.0170
     36 C25         7.4161    2.7457    9.6954 C.3       1 <0>        -0.1085
     37 C26         8.2598    3.8862   10.2684 C.3       1 <0>        -0.1398
     38 C27         3.7956   -3.6168    6.9563 C.3       1 <0>        -0.1380
     39 H2         -1.8803   -4.8204    7.9916 H         1 <0>         0.0667
     40 H3         -2.2558   -6.5594    7.9350 H         1 <0>         0.0796
     41 H4         -0.5819   -6.0187    8.2070 H         1 <0>         0.0653
     42 H5         -0.8203   -6.7546    5.8834 H         1 <0>         0.0631
     43 H6         -2.2144   -5.6723    5.6528 H         1 <0>         0.0627
     44 H7         -1.4055   -6.1307    3.8701 H         1 <0>         0.1310
     45 H8         -0.8492   -5.8548    1.4888 H         1 <0>         0.1261
     46 H9          0.7903   -4.1587    0.7910 H         1 <0>         0.1282
     47 H10         1.8826   -2.7308    2.4713 H         1 <0>         0.1568
     48 H11         1.0168   -2.6182    5.9211 H         1 <0>         0.4157
     49 H12         4.7824   -1.8624    8.6971 H         1 <0>         0.4403
     50 H13         1.9654    0.0241    7.9582 H         1 <0>         0.1157
     51 H14        -0.2825    0.9378    8.3699 H         1 <0>         0.1389
     52 H15         1.7192    1.2214    3.8723 H         1 <0>         0.1379
     53 H16         0.0456    1.1723    2.4581 H         1 <0>         0.0558
     54 H17        -0.7249    2.7246    2.0518 H         1 <0>         0.1030
     55 H18         0.8909    2.7014    2.7980 H         1 <0>         0.0562
     56 H19        -2.0842    0.8815    8.2208 H         1 <0>         0.0714
     57 H20        -2.1102    3.9214    8.4944 H         1 <0>         0.0697
     58 H21        -2.2640    2.7575    9.8323 H         1 <0>         0.0730
     59 H22        -0.7469    2.8538    8.9064 H         1 <0>         0.0622
     60 H23        -4.2628    1.2292    7.0887 H         1 <0>         0.0656
     61 H24        -4.3172    1.8088    8.7708 H         1 <0>         0.0777
     62 H25        -4.1634    2.9727    7.4330 H         1 <0>         0.0686
     63 H26         6.7032    2.4078   10.4474 H         1 <0>         0.0924
     64 H27         8.0672    1.9180    9.4140 H         1 <0>         0.0927
     65 H28         8.7990    3.5331   11.1475 H         1 <0>         0.0797
     66 H29         8.9727    4.2242    9.5164 H         1 <0>         0.0674
     67 H30         7.6087    4.7139   10.5498 H         1 <0>         0.0672
     68 H31         4.6506   -4.0621    6.4478 H         1 <0>         0.0986
     69 H32         3.7969   -3.9204    8.0032 H         1 <0>         0.0888
     70 H33         2.8743   -3.9541    6.4814 H         1 <0>         0.0974
@<TRIPOS>BOND
     1    1    2 1
     2    1   39 1
     3    1   40 1
     4    1   41 1
     5    2    3 1
     6    2   42 1
     7    2   43 1
     8    3    4 1
     9    4    9 ar
    10    4    5 ar
    11    5    6 ar
    12    5   44 1
    13    6    7 ar
    14    6   45 1
    15    7    8 ar
    16    7   46 1
    17    8    9 ar
    18    8   47 1
    19    9   10 1
    20   10   11 am
    21   10   48 1
    22   11   12 2
    23   11   13 1
    24   13   21 1
    25   13   14 2
    26   14   15 1
    27   14   38 1
    28   15   16 1
    29   15   49 1
    30   16   20 1
    31   16   17 2
    32   17   18 1
    33   18   19 2
    34   18   35 1
    35   19   20 1
    36   20   21 1
    37   21   22 1
    38   21   23 1
    39   23   28 ar
    40   23   24 ar
    41   24   25 ar
    42   24   50 1
    43   25   26 ar
    44   25   51 1
    45   26   27 ar
    46   26   31 1
    47   27   28 ar
    48   27   29 1
    49   28   52 1
    50   29   30 1
    51   30   53 1
    52   30   54 1
    53   30   55 1
    54   31   32 1
    55   32   33 1
    56   32   34 1
    57   32   56 1
    58   33   57 1
    59   33   58 1
    60   33   59 1
    61   34   60 1
    62   34   61 1
    63   34   62 1
    64   35   36 1
    65   36   37 1
    66   36   63 1
    67   36   64 1
    68   37   65 1
    69   37   66 1
    70   37   67 1
    71   38   68 1
    72   38   69 1
    73   38   70 1
@<TRIPOS>MOLECULE
ZINC64954025
   64    68     0     0     0
SMALL
USER_CHARGES

@<TRIPOS>ATOM
      1 C1          0.4805    1.5732   -0.1055 C.3       1 <0>        -0.1462
      2 C2          0.2492    0.0609   -0.0888 C.3       1 <0>         0.1512
      3 C3          0.9712   -0.5619   -1.2834 C.3       1 <0>         0.0990
      4 N1          1.0126   -2.0157   -1.1191 N.pl3     1 <0>        -0.4443
      5 C4          1.0444   -2.9987   -2.0204 C.2       1 <0>         0.2386
      6 N2          1.0983   -4.1547   -1.4056 N.2       1 <0>        -0.4715
      7 C5          1.0961   -3.9576   -0.0708 C.2       1 <0>         0.0538
      8 C6          1.0342   -2.6036    0.1308 C.2       1 <0>        -0.0443
      9 C7          0.9796   -1.7894    1.3559 C.2       1 <0>         0.5808
     10 O1          1.1656   -2.2719    2.4566 O.2       1 <0>        -0.4386
     11 N3          0.7100   -0.4718    1.1883 N.am      1 <0>        -0.5878
     12 C8          0.8861    0.4416    2.3201 C.3       1 <0>         0.0541
     13 C9          1.7069   -0.0585    3.5104 C.3       1 <0>        -0.1828
     14 C10         0.1884    0.0820    3.6334 C.3       1 <0>        -0.1794
     15 C11         1.1496   -5.0024    0.9741 C.2       1 <0>         0.5859
     16 O2          1.1407   -4.6886    2.1483 O.2       1 <0>        -0.4918
     17 N4          1.2083   -6.3027    0.6245 N.am      1 <0>        -0.7178
     18 C12         1.2614   -7.3379    1.6598 C.3       1 <0>         0.1268
     19 C13         1.3222   -8.7168    0.9996 C.3       1 <0>        -0.0921
     20 C14         1.3768   -9.7816    2.0646 C.ar      1 <0>        -0.0781
     21 C15         2.5977  -10.2103    2.5511 C.ar      1 <0>        -0.1002
     22 C16         2.6484  -11.1869    3.5278 C.ar      1 <0>        -0.1081
     23 C17         1.4770  -11.7355    4.0186 C.ar      1 <0>        -0.0356
     24 C18         0.2554  -11.3060    3.5313 C.ar      1 <0>        -0.1079
     25 C19         0.2057  -10.3254    2.5586 C.ar      1 <0>        -0.0998
     26 Cl1         1.5399  -12.9625    5.2450 Cl        1 <0>        -0.0693
     27 C20        -1.2279   -0.2061   -0.2228 C.2       1 <0>         0.5051
     28 O3         -1.9459    0.6117   -0.7582 O.2       1 <0>        -0.5198
     29 N5         -1.7511   -1.3537    0.2524 N.am      1 <0>        -0.7155
     30 C21        -3.1871   -1.6132    0.1222 C.3       1 <0>         0.1623
     31 C22        -3.5123   -2.9538    0.7289 C.ar      1 <0>        -0.1287
     32 C23        -3.4648   -4.0945   -0.0506 C.ar      1 <0>        -0.0677
     33 C24        -3.7624   -5.3245    0.5048 C.ar      1 <0>        -0.1531
     34 C25        -4.1082   -5.4140    1.8425 C.ar      1 <0>         0.1130
     35 C26        -4.1555   -4.2708    2.6223 C.ar      1 <0>        -0.1523
     36 C27        -3.8523   -3.0426    2.0660 C.ar      1 <0>        -0.0667
     37 F1         -4.3998   -6.6158    2.3864 F         1 <0>        -0.1354
     38 H1          1.5436    1.7795    0.0184 H         1 <0>         0.0828
     39 H2          0.1394    1.9825   -1.0564 H         1 <0>         0.0939
     40 H3         -0.0767    2.0350    0.7096 H         1 <0>         0.0849
     41 H4          0.4371   -0.3144   -2.2008 H         1 <0>         0.1279
     42 H5          1.9879   -0.1727   -1.3374 H         1 <0>         0.1181
     43 H6          1.0277   -2.8628   -3.0916 H         1 <0>         0.2222
     44 H7          0.9628    1.4983    2.0638 H         1 <0>         0.1424
     45 H8          2.1160   -1.0671    3.4515 H         1 <0>         0.1296
     46 H9          2.3240    0.6692    4.0375 H         1 <0>         0.0982
     47 H10        -0.1936    0.9021    4.2413 H         1 <0>         0.1002
     48 H11        -0.4017   -0.8343    3.6553 H         1 <0>         0.0990
     49 H12         1.2154   -6.5531   -0.3126 H         1 <0>         0.4080
     50 H13         2.1485   -7.1905    2.2758 H         1 <0>         0.0725
     51 H14         0.3704   -7.2731    2.2844 H         1 <0>         0.0717
     52 H15         0.4351   -8.8641    0.3836 H         1 <0>         0.0836
     53 H16         2.2131   -8.7816    0.3750 H         1 <0>         0.0841
     54 H17         3.5121   -9.7822    2.1676 H         1 <0>         0.1331
     55 H18         3.6023  -11.5219    3.9075 H         1 <0>         0.1345
     56 H19        -0.6594  -11.7341    3.9138 H         1 <0>         0.1345
     57 H20        -0.7479   -9.9867    2.1816 H         1 <0>         0.1329
     58 H21        -1.1769   -2.0077    0.6806 H         1 <0>         0.4003
     59 H22        -3.7456   -0.8343    0.6414 H         1 <0>         0.0831
     60 H23        -3.4617   -1.6155   -0.9326 H         1 <0>         0.0821
     61 H24        -3.1953   -4.0244   -1.0941 H         1 <0>         0.1323
     62 H25        -3.7255   -6.2155   -0.1045 H         1 <0>         0.1387
     63 H26        -4.4254   -4.3394    3.6657 H         1 <0>         0.1396
     64 H27        -3.8848   -2.1513    2.6751 H         1 <0>         0.1342
@<TRIPOS>BOND
     1    1    2 1
     2    1   38 1
     3    1   39 1
     4    1   40 1
     5    2   11 1
     6    2    3 1
     7    2   27 1
     8    3    4 1
     9    3   41 1
    10    3   42 1
    11    4    8 1
    12    4    5 1
    13    5    6 2
    14    5   43 1
    15    6    7 1
    16    7    8 2
    17    7   15 1
    18    8    9 1
    19    9   10 2
    20    9   11 am
    21   11   12 1
    22   12   14 1
    23   12   13 1
    24   12   44 1
    25   13   14 1
    26   13   45 1
    27   13   46 1
    28   14   47 1
    29   14   48 1
    30   15   16 2
    31   15   17 am
    32   17   18 1
    33   17   49 1
    34   18   19 1
    35   18   50 1
    36   18   51 1
    37   19   20 1
    38   19   52 1
    39   19   53 1
    40   20   25 ar
    41   20   21 ar
    42   21   22 ar
    43   21   54 1
    44   22   23 ar
    45   22   55 1
    46   23   24 ar
    47   23   26 1
    48   24   25 ar
    49   24   56 1
    50   25   57 1
    51   27   28 2
    52   27   29 am
    53   29   30 1
    54   29   58 1
    55   30   31 1
    56   30   59 1
    57   30   60 1
    58   31   36 ar
    59   31   32 ar
    60   32   33 ar
    61   32   61 1
    62   33   34 ar
    63   33   62 1
    64   34   35 ar
    65   34   37 1
    66   35   36 ar
    67   35   63 1
    68   36   64 1
@<TRIPOS>MOLECULE
ZINC34133609
   33    34     0     0     0
SMALL
USER_CHARGES

@<TRIPOS>ATOM
      1 C1          1.1901   -0.6412   -0.4099 C.ar      1 <0>        -0.0861
      2 C2          2.3637    0.0788   -0.4719 C.ar      1 <0>        -0.1030
      3 C3          2.3648    1.4345   -0.1860 C.ar      1 <0>        -0.0243
      4 C4          1.1881    2.0768    0.1642 C.ar      1 <0>        -0.1130
      5 C5          0.0066    1.3703    0.2305 C.ar      1 <0>        -0.0768
      6 C6         -0.0026    0.0007   -0.0574 C.ar      1 <0>        -0.0673
      7 C7         -1.2584   -0.7598    0.0105 C.2       1 <0>         0.0255
      8 C8         -1.2394   -2.1116   -0.0994 C.2       1 <0>        -0.1862
      9 C9         -2.3641   -3.0631   -0.2199 C.2       1 <0>         0.5452
     10 O1         -3.5213   -2.6871   -0.2335 O.2       1 <0>        -0.4584
     11 N1         -2.0482   -4.3439   -0.3126 N.am      1 <0>        -0.4852
     12 C10        -0.7644   -4.7562   -0.2975 C.2       1 <0>         0.2263
     13 S1         -0.1598   -6.3542   -0.4053 S.2       1 <0>        -0.2139
     14 S2          0.1530   -3.2318   -0.1460 S.3       1 <0>         0.0067
     15 C11        -3.1177   -5.3378   -0.4340 C.3       1 <0>         0.0651
     16 H1         -4.0842   -4.8339   -0.4292 H         1 <0>         0.1137
     17 C12        -3.0445   -6.3120    0.7434 C.3       1 <0>        -0.1597
     18 C13        -3.3306   -5.5731    2.0253 C.2       1 <0>         0.5117
     19 O2         -3.5695   -4.3843    1.9997 O.2       1 <0>        -0.5373
     20 N2         -3.3211   -6.2334    3.2003 N.am      1 <0>        -0.8586
     21 C14        -2.9535   -6.0972   -1.7253 C.2       1 <0>         0.4956
     22 O3         -1.8417   -6.2646   -2.1969 O.co2     1 <0>        -0.6404
     23 O4         -3.9324   -6.5441   -2.2984 O.co2     1 <0>        -0.6742
     24 Cl1         3.8481    2.3328   -0.2662 Cl        1 <0>        -0.0684
     25 H2          1.1900   -1.6970   -0.6371 H         1 <0>         0.1447
     26 H3          3.2848   -0.4152   -0.7438 H         1 <0>         0.1408
     27 H4          1.1968    3.1337    0.3861 H         1 <0>         0.1384
     28 H5         -0.9097    1.8721    0.5042 H         1 <0>         0.1417
     29 H6         -2.1963   -0.2423    0.1478 H         1 <0>         0.1598
     30 H7         -3.7825   -7.1026    0.6073 H         1 <0>         0.1135
     31 H8         -2.0476   -6.7500    0.7913 H         1 <0>         0.1275
     32 H9         -3.1300   -7.1841    3.2208 H         1 <0>         0.4008
     33 H10        -3.5052   -5.7578    4.0254 H         1 <0>         0.3957
@<TRIPOS>BOND
     1    1    6 ar
     2    1    2 ar
     3    1   25 1
     4    2    3 ar
     5    2   26 1
     6    3    4 ar
     7    3   24 1
     8    4    5 ar
     9    4   27 1
    10    5    6 ar
    11    5   28 1
    12    6    7 1
    13    7    8 2
    14    7   29 1
    15    8   14 1
    16    8    9 1
    17    9   10 2
    18    9   11 am
    19   11   12 1
    20   11   15 1
    21   12   13 2
    22   12   14 1
    23   15   16 1
    24   15   17 1
    25   15   21 1
    26   17   18 1
    27   17   30 1
    28   17   31 1
    29   18   19 2
    30   18   20 am
    31   20   32 1
    32   20   33 1
    33   21   22 2
    34   21   23 1
@<TRIPOS>MOLECULE
ZINC40218856
   28    29     0     0     0
SMALL
USER_CHARGES

@<TRIPOS>ATOM
      1 C1         -0.0167    1.3781    0.0096 C.ar      1 <0>        -0.1044
      2 C2          1.1698    2.0893    0.0021 C.ar      1 <0>        -0.1134
      3 C3          2.3786    1.4189   -0.0135 C.ar      1 <0>        -0.0123
      4 C4          2.3999    0.0279   -0.0212 C.ar      1 <0>         0.2404
      5 C5          1.2068   -0.6810   -0.0132 C.ar      1 <0>        -0.0567
      6 C6          0.0021   -0.0041    0.0020 C.ar      1 <0>        -0.6368
      7 S1         -1.5126   -0.9043    0.0117 S.o2      1 <0>         2.7040
      8 O1         -1.2203   -2.1852    0.5529 O.2       1 <0>        -0.9690
      9 O2         -2.4926   -0.0442    0.5765 O.2       1 <0>        -0.9744
     10 N1         -1.9486   -1.1459   -1.5675 N.pl3     1 <0>        -1.2521
     11 N2          3.6205   -0.6543   -0.0375 N.2       1 <0>        -1.0841
     12 S2          5.0429    0.1936   -0.0476 S.o2      1 <0>         2.6447
     13 O3          5.0969    0.8814   -1.2899 O.2       1 <0>        -1.0106
     14 O4          5.1226    0.8680    1.2006 O.2       1 <0>        -1.0114
     15 C7          6.3521   -0.9855   -0.0675 C.2       1 <0>        -0.6716
     16 C8          6.9789   -1.5466   -1.1298 C.2       1 <0>        -0.0375
     17 C9          7.9923   -2.4600   -0.9051 C.2       1 <0>        -0.1612
     18 C10         8.3287   -2.7670    0.3727 C.2       1 <0>        -0.1157
     19 S3          7.2020   -1.7446    1.3068 S.3       1 <0>         0.2023
     20 Cl1         9.5440   -3.8641    0.9499 Cl        1 <0>         0.0139
     21 F1          3.5374    2.1134   -0.0217 F         1 <0>        -0.1339
     22 H1         -0.9599    1.9039    0.0260 H         1 <0>         0.1349
     23 H2          1.1516    3.1691    0.0081 H         1 <0>         0.1288
     24 H3          1.2198   -1.7609   -0.0195 H         1 <0>         0.1449
     25 H4         -1.3888   -0.8054   -2.2828 H         1 <0>         0.4178
     26 H5         -2.7638   -1.6280   -1.7773 H         1 <0>         0.4150
     27 H6          6.6908   -1.2845   -2.1371 H         1 <0>         0.1525
     28 H7          8.5078   -2.9222   -1.7340 H         1 <0>         0.1460
@<TRIPOS>BOND
     1    1    6 ar
     2    1    2 ar
     3    1   22 1
     4    2    3 ar
     5    2   23 1
     6    3    4 ar
     7    3   21 1
     8    4    5 ar
     9    4   11 1
    10    5    6 ar
    11    5   24 1
    12    6    7 1
    13    7    8 2
    14    7    9 2
    15    7   10 1
    16   10   25 1
    17   10   26 1
    18   11   12 1
    19   12   13 2
    20   12   14 2
    21   12   15 1
    22   15   19 1
    23   15   16 2
    24   16   17 1
    25   16   27 1
    26   17   18 2
    27   17   28 1
    28   18   19 1
    29   18   20 1
@<TRIPOS>MOLECULE
ZINC55652006
   44    45     0     0     0
SMALL
USER_CHARGES

@<TRIPOS>ATOM
      1 C1         -0.0032    1.7024    0.0044 C.3       1 <0>        -0.1443
      2 C2          0.1789    0.1853    0.0829 C.3       1 <0>        -0.0937
      3 C3          0.9329   -0.3026   -1.1557 C.3       1 <0>        -0.1431
      4 C4          0.9782   -0.1681    1.3387 C.3       1 <0>         0.0628
      5 O1          0.2217    0.1824    2.4992 O.3       1 <0>        -0.2878
      6 C5          0.7931   -0.0682    3.7078 C.ar      1 <0>         0.0640
      7 C6          2.0559   -0.6333    3.7748 C.ar      1 <0>        -0.1727
      8 C7          2.6355   -0.8879    5.0042 C.ar      1 <0>        -0.1959
      9 C8          1.9580   -0.5795    6.1692 C.ar      1 <0>        -0.0944
     10 C9          0.6977   -0.0150    6.1110 C.ar      1 <0>        -0.2473
     11 C10         0.1121    0.2482    4.8812 C.ar      1 <0>         0.2649
     12 N1         -1.1616    0.8251    4.8196 N.2       1 <0>        -1.0751
     13 S1         -1.9691    1.2003    6.2158 S.o2      1 <0>         2.6262
     14 O2         -2.2575   -0.0320    6.8618 O.2       1 <0>        -1.0393
     15 O3         -1.2293    2.2364    6.8470 O.2       1 <0>        -1.0351
     16 C11        -3.5180    1.8994    5.7501 C.2       1 <0>        -0.6855
     17 C12        -3.7736    3.2547    5.5198 C.2       1 <0>        -0.0441
     18 C13        -5.1054    3.3638    5.1802 C.2       1 <0>        -0.0816
     19 N2         -5.6447    2.0976    5.2048 N.pl3     1 <0>        -0.4101
     20 C14        -4.6710    1.2185    5.5458 C.2       1 <0>         0.1317
     21 C15        -7.0376    1.7562    4.9060 C.3       1 <0>         0.0634
     22 C16        -5.8180    4.6034    4.8532 C.2       1 <0>         0.6028
     23 O4         -6.9712    4.5586    4.4670 O.2       1 <0>        -0.5598
     24 N3         -5.1956    5.7921    4.9804 N.am      1 <0>        -0.8435
     25 H1          0.9737    2.1838   -0.0393 H         1 <0>         0.0491
     26 H2         -0.5727    1.9542   -0.8903 H         1 <0>         0.0475
     27 H3         -0.5404    2.0500    0.8868 H         1 <0>         0.0705
     28 H4         -0.7981   -0.2961    0.1266 H         1 <0>         0.0781
     29 H5          1.9099    0.1788   -1.1994 H         1 <0>         0.0542
     30 H6          1.0627   -1.3834   -1.0998 H         1 <0>         0.0540
     31 H7          0.3635   -0.0508   -2.0504 H         1 <0>         0.0576
     32 H8          1.1843   -1.2384    1.3489 H         1 <0>         0.0474
     33 H9          1.9186    0.3830    1.3379 H         1 <0>         0.0481
     34 H10         2.5878   -0.8754    2.8666 H         1 <0>         0.1082
     35 H11         3.6199   -1.3293    5.0544 H         1 <0>         0.1016
     36 H12         2.4145   -0.7806    7.1271 H         1 <0>         0.1018
     37 H13         0.1705    0.2246    7.0227 H         1 <0>         0.1027
     38 H14        -3.0620    4.0637    5.5944 H         1 <0>         0.1541
     39 H15        -4.7950    0.1500    5.6419 H         1 <0>         0.1846
     40 H16        -7.1271    1.4821    3.8548 H         1 <0>         0.0780
     41 H17        -7.3474    0.9164    5.5280 H         1 <0>         0.0834
     42 H18        -7.6748    2.6160    5.1128 H         1 <0>         0.1029
     43 H19        -4.2556    5.8245    5.2175 H         1 <0>         0.4071
     44 H20        -5.6878    6.6152    4.8348 H         1 <0>         0.4067
@<TRIPOS>BOND
     1    1    2 1
     2    1   25 1
     3    1   26 1
     4    1   27 1
     5    2    3 1
     6    2    4 1
     7    2   28 1
     8    3   29 1
     9    3   30 1
    10    3   31 1
    11    4    5 1
    12    4   32 1
    13    4   33 1
    14    5    6 1
    15    6   11 ar
    16    6    7 ar
    17    7    8 ar
    18    7   34 1
    19    8    9 ar
    20    8   35 1
    21    9   10 ar
    22    9   36 1
    23   10   11 ar
    24   10   37 1
    25   11   12 1
    26   12   13 1
    27   13   14 2
    28   13   15 2
    29   13   16 1
    30   16   20 2
    31   16   17 1
    32   17   18 2
    33   17   38 1
    34   18   19 1
    35   18   22 1
    36   19   20 1
    37   19   21 1
    38   20   39 1
    39   21   40 1
    40   21   41 1
    41   21   42 1
    42   22   23 2
    43   22   24 am
    44   24   43 1
    45   24   44 1
@<TRIPOS>MOLECULE
ZINC64476170
   42    43     0     0     0
SMALL
USER_CHARGES

@<TRIPOS>ATOM
      1 C1         -0.0184    1.5028    0.0103 C.3       1 <0>        -0.1199
      2 C2          0.0021   -0.0041    0.0020 C.ar      1 <0>        -0.0751
      3 C3          0.0058   -0.6889   -1.1956 C.ar      1 <0>        -0.0836
      4 C4          0.0251   -2.0722   -1.2050 C.ar      1 <0>        -0.1206
      5 C5          0.0402   -2.7784   -0.0150 C.ar      1 <0>        -0.0373
      6 C6          0.0367   -2.1065    1.1894 C.ar      1 <0>        -0.5805
      7 C7          0.0231   -0.7101    1.2062 C.ar      1 <0>        -0.0032
      8 C8          0.0249    0.0165    2.4924 C.2       1 <0>         0.4988
      9 O1         -1.0261    0.3006    3.0310 O.2       1 <0>        -0.4700
     10 O2          1.1922    0.3640    3.0680 O.3       1 <0>        -0.3201
     11 C9          1.1192    1.0649    4.3112 C.3       1 <0>         0.0368
     12 S1          0.0560   -3.0076    2.7034 S.o2      1 <0>         2.5848
     13 O3         -0.9733   -2.4596    3.5155 O.2       1 <0>        -1.0048
     14 O4          0.1003   -4.3847    2.3558 O.2       1 <0>        -1.0183
     15 N1          1.4888   -2.6640    3.4594 N.2       1 <0>        -1.0634
     16 C10         1.7831   -3.2445    4.6956 C.ar      1 <0>         0.2971
     17 C11         0.8776   -4.1130    5.2868 C.ar      1 <0>        -0.2037
     18 C12         1.1749   -4.6905    6.5208 C.ar      1 <0>        -0.0706
     19 C13         2.3823   -4.3912    7.1541 C.ar      1 <0>        -0.2237
     20 C14         3.2788   -3.5246    6.5576 C.ar      1 <0>         0.1248
     21 C15         2.9852   -2.9561    5.3297 C.ar      1 <0>        -0.1594
     22 C16         3.9698   -2.0169    4.6820 C.3       1 <0>        -0.0795
     23 F1          4.4468   -3.2354    7.1718 F         1 <0>        -0.1492
     24 C17         0.2137   -5.6168    7.1568 C.2       1 <0>         0.5646
     25 O5         -0.8374   -5.8759    6.6040 O.2       1 <0>        -0.5381
     26 N2          0.5030   -6.1739    8.3495 N.am      1 <0>        -0.8552
     27 H1          1.0042    1.8801    0.0026 H         1 <0>         0.0799
     28 H2         -0.5455    1.8639   -0.8728 H         1 <0>         0.0749
     29 H3         -0.5286    1.8543    0.9071 H         1 <0>         0.0667
     30 H4         -0.0066   -0.1439   -2.1280 H         1 <0>         0.1343
     31 H5          0.0279   -2.6034   -2.1454 H         1 <0>         0.1345
     32 H6          0.0545   -3.8583   -0.0295 H         1 <0>         0.1474
     33 H7          2.1268    1.2838    4.6646 H         1 <0>         0.1009
     34 H8          0.5727    1.9975    4.1710 H         1 <0>         0.0517
     35 H9          0.6024    0.4480    5.0463 H         1 <0>         0.0650
     36 H10        -0.0554   -4.3411    4.7930 H         1 <0>         0.1178
     37 H11         2.6158   -4.8363    8.1100 H         1 <0>         0.1193
     38 H12         3.7642   -0.9961    5.0043 H         1 <0>         0.0535
     39 H13         4.9826   -2.2935    4.9751 H         1 <0>         0.0430
     40 H14         3.8748   -2.0818    3.5981 H         1 <0>         0.0816
     41 H15         1.3417   -5.9671    8.7907 H         1 <0>         0.4002
     42 H16        -0.1275   -6.7815    8.7667 H         1 <0>         0.3984
@<TRIPOS>BOND
     1    1    2 1
     2    1   27 1
     3    1   28 1
     4    1   29 1
     5    2    7 ar
     6    2    3 ar
     7    3    4 ar
     8    3   30 1
     9    4    5 ar
    10    4   31 1
    11    5    6 ar
    12    5   32 1
    13    6    7 ar
    14    6   12 1
    15    7    8 1
    16    8    9 2
    17    8   10 1
    18   10   11 1
    19   11   33 1
    20   11   34 1
    21   11   35 1
    22   12   13 2
    23   12   14 2
    24   12   15 1
    25   15   16 1
    26   16   21 ar
    27   16   17 ar
    28   17   18 ar
    29   17   36 1
    30   18   19 ar
    31   18   24 1
    32   19   20 ar
    33   19   37 1
    34   20   21 ar
    35   20   23 1
    36   21   22 1
    37   22   38 1
    38   22   39 1
    39   22   40 1
    40   24   25 2
    41   24   26 am
    42   26   41 1
    43   26   42 1
@<TRIPOS>MOLECULE
ZINC66426978
   49    50     0     0     0
SMALL
USER_CHARGES

@<TRIPOS>ATOM
      1 C1          0.1336    1.6779   -0.3485 C.3       1 <0>        -0.1244
      2 C2          0.1587    0.1750   -0.2405 C.ar      1 <0>         0.0016
      3 C3         -0.0221   -0.5998   -1.3642 C.ar      1 <0>        -0.1396
      4 C4          0.0009   -1.9874   -1.2653 C.ar      1 <0>         0.2058
      5 C5          0.2067   -2.5969   -0.0312 C.ar      1 <0>        -0.1753
      6 C6          0.3876   -1.8281    1.0961 C.ar      1 <0>        -0.0614
      7 C7          0.3713   -0.4338    0.9992 C.ar      1 <0>        -0.1813
      8 C8          0.5715    0.3937    2.2048 C.2       1 <0>         0.5666
      9 O1          0.4905    1.6046    2.1313 O.2       1 <0>        -0.5363
     10 N1          0.8441   -0.1930    3.3871 N.am      1 <0>        -0.7291
     11 C9          1.0428    0.6284    4.5838 C.3       1 <0>         0.1370
     12 C10         0.7184   -0.1985    5.8296 C.3       1 <0>        -0.1606
     13 C11         2.4986    1.0949    4.6462 C.3       1 <0>        -0.1643
     14 N2         -0.1829   -2.7687   -2.4045 N.am      1 <0>        -0.6898
     15 C12         0.3074   -2.3568   -3.5904 C.2       1 <0>         0.5627
     16 O2          0.8295   -1.2627   -3.6856 O.2       1 <0>        -0.4759
     17 C13         0.2108   -3.2325   -4.7720 C.ar      1 <0>        -0.2299
     18 C14        -0.3935   -4.4884   -4.6690 C.ar      1 <0>        -0.0409
     19 C15        -0.4806   -5.3021   -5.7770 C.ar      1 <0>        -0.2378
     20 C16         0.0287   -4.8825   -6.9960 C.ar      1 <0>        -0.0433
     21 C17         0.6282   -3.6456   -7.1142 C.ar      1 <0>        -0.2572
     22 C18         0.7199   -2.8080   -6.0093 C.ar      1 <0>         0.3363
     23 N3          1.3174   -1.5599   -6.1271 N.2       1 <0>        -1.0399
     24 S1          1.9166   -1.0634   -7.5889 S.o2      1 <0>         2.5171
     25 O3          2.9690   -1.9736   -7.8774 O.2       1 <0>        -1.0295
     26 O4          0.7795   -0.9784   -8.4369 O.2       1 <0>        -1.0293
     27 C19         2.5899    0.5922   -7.2787 C.3       1 <0>        -0.6314
     28 H1          1.1543    2.0546   -0.4134 H         1 <0>         0.0714
     29 H2         -0.4186    1.9688   -1.2421 H         1 <0>         0.0579
     30 H3         -0.3532    2.0973    0.5320 H         1 <0>         0.0989
     31 H4         -0.1824   -0.1299   -2.3233 H         1 <0>         0.1502
     32 H5          0.2240   -3.6743    0.0422 H         1 <0>         0.1279
     33 H6          0.5465   -2.3017    2.0536 H         1 <0>         0.1219
     34 H7          0.9087   -1.1590    3.4457 H         1 <0>         0.3974
     35 H8          0.3847    1.4963    4.5422 H         1 <0>         0.0878
     36 H9          1.3766   -1.0663    5.8712 H         1 <0>         0.0601
     37 H10         0.8663    0.4126    6.7200 H         1 <0>         0.0712
     38 H11        -0.3187   -0.5308    5.7851 H         1 <0>         0.0614
     39 H12         3.1568    0.2270    4.6878 H         1 <0>         0.0556
     40 H13         2.7298    1.6840    3.7587 H         1 <0>         0.0619
     41 H14         2.6465    1.7060    5.5366 H         1 <0>         0.0631
     42 H15        -0.6637   -3.6089   -2.3439 H         1 <0>         0.4045
     43 H16        -0.7914   -4.8208   -3.7215 H         1 <0>         0.1046
     44 H17        -0.9479   -6.2723   -5.6955 H         1 <0>         0.1063
     45 H18        -0.0439   -5.5282   -7.8587 H         1 <0>         0.1056
     46 H19         1.0225   -3.3261   -8.0676 H         1 <0>         0.1081
     47 H20         3.3722    0.5304   -6.5222 H         1 <0>         0.1168
     48 H21         3.0081    0.9932   -8.2020 H         1 <0>         0.1008
     49 H22         1.7939    1.2478   -6.9256 H         1 <0>         0.1170
@<TRIPOS>BOND
     1    1    2 1
     2    1   28 1
     3    1   29 1
     4    1   30 1
     5    2    7 ar
     6    2    3 ar
     7    3    4 ar
     8    3   31 1
     9    4    5 ar
    10    4   14 1
    11    5    6 ar
    12    5   32 1
    13    6    7 ar
    14    6   33 1
    15    7    8 1
    16    8    9 2
    17    8   10 am
    18   10   11 1
    19   10   34 1
    20   11   12 1
    21   11   13 1
    22   11   35 1
    23   12   36 1
    24   12   37 1
    25   12   38 1
    26   13   39 1
    27   13   40 1
    28   13   41 1
    29   14   15 am
    30   14   42 1
    31   15   16 2
    32   15   17 1
    33   17   22 ar
    34   17   18 ar
    35   18   19 ar
    36   18   43 1
    37   19   20 ar
    38   19   44 1
    39   20   21 ar
    40   20   45 1
    41   21   22 ar
    42   21   46 1
    43   22   23 1
    44   23   24 1
    45   24   25 2
    46   24   26 2
    47   24   27 1
    48   27   47 1
    49   27   48 1
    50   27   49 1
@<TRIPOS>MOLECULE
ZINC28617394
   52    55     0     0     0
SMALL
USER_CHARGES
(2R,5Z)-3-(2,6-dichloro-4-nitro-phenyl)-5-[(4-dimethylaminophenyl)methylene]-2-phenyl-imidazolidin-4-one
@<TRIPOS>ATOM
      1 C1          3.4478    7.9379    3.4739 C.3       1 <0>         0.0945
      2 N1          4.4343    7.3413    2.5700 N.pl3     1 <0>        -0.6462
      3 C2          5.6639    8.0684    2.2450 C.3       1 <0>         0.0950
      4 C3          4.2032    6.0824    2.0195 C.ar      1 <0>         0.1592
      5 C4          3.0344    5.3935    2.3296 C.ar      1 <0>        -0.1915
      6 C5          2.8017    4.1497    1.7877 C.ar      1 <0>        -0.0716
      7 C6          3.7428    3.5779    0.9234 C.ar      1 <0>         0.0002
      8 C7          4.9197    4.2720    0.6188 C.ar      1 <0>        -0.1156
      9 C8          5.1415    5.5177    1.1607 C.ar      1 <0>        -0.1941
     10 C9          3.4988    2.2503    0.3424 C.2       1 <0>        -0.3010
     11 C10         2.2310    1.7985    0.1951 C.2       1 <0>         0.1251
     12 C11         1.8440    0.4419   -0.2040 C.2       1 <0>         0.5406
     13 O1          2.6175   -0.4632   -0.4565 O.2       1 <0>        -0.5348
     14 N2          0.5029    0.3511   -0.2478 N.am      1 <0>        -0.6005
     15 C12        -0.0650    1.6508    0.1224 C.3       1 <0>         0.3298
     16 H1         -0.6981    1.5484    1.0161 H         1 <0>         0.0596
     17 N3          1.0649    2.5470    0.3974 N.2       1 <0>        -0.6776
     18 C13        -0.8891    2.1956   -1.0157 C.ar      1 <0>        -0.0773
     19 C14        -0.2744    2.5763   -2.1938 C.ar      1 <0>        -0.0639
     20 C15        -1.0310    3.0710   -3.2396 C.ar      1 <0>        -0.1307
     21 C16        -2.4009    3.1957   -3.1032 C.ar      1 <0>        -0.1246
     22 C17        -3.0150    2.8198   -1.9231 C.ar      1 <0>        -0.1307
     23 C18        -2.2591    2.3198   -0.8794 C.ar      1 <0>        -0.1153
     24 C19        -0.2278   -0.7921   -0.5898 C.ar      1 <0>         0.2534
     25 C20        -0.7770   -1.5913    0.4056 C.ar      1 <0>        -0.0372
     26 C21        -1.5027   -2.7170    0.0637 C.ar      1 <0>        -0.0394
     27 C22        -1.6732   -3.0542   -1.2664 C.ar      1 <0>        -0.0341
     28 C23        -1.1237   -2.2643   -2.2594 C.ar      1 <0>        -0.0391
     29 C24        -0.4012   -1.1342   -1.9254 C.ar      1 <0>        -0.0298
     30 Cl1         0.2892   -0.1438   -3.1729 Cl        1 <0>        -0.0041
     31 N4         -2.4462   -4.2636   -1.6282 N.pl3     1 <0>         0.0348
     32 O2         -2.5976   -4.5618   -2.7994 O.2       1 <0>        -0.1523
     33 O3         -2.9309   -4.9605   -0.7547 O.3       1 <0>        -0.1525
     34 Cl2        -0.5576   -1.1728    2.0760 Cl        1 <0>        -0.0105
     35 H2          2.5990    7.2491    3.5964 H         1 <0>         0.0789
     36 H3          3.0906    8.8884    3.0509 H         1 <0>         0.0420
     37 H4          3.9131    8.1242    4.4531 H         1 <0>         0.0418
     38 H5          6.2755    7.4656    1.5576 H         1 <0>         0.0772
     39 H6          6.2310    8.2606    3.1678 H         1 <0>         0.0417
     40 H7          5.4084    9.0249    1.7656 H         1 <0>         0.0418
     41 H8          2.3087    5.8355    2.9962 H         1 <0>         0.1060
     42 H9          1.8943    3.6160    2.0286 H         1 <0>         0.1398
     43 H10         5.6505    3.8326   -0.0440 H         1 <0>         0.1051
     44 H11         6.0470    6.0559    0.9225 H         1 <0>         0.1055
     45 H12         4.3461    1.6236    0.0272 H         1 <0>         0.0953
     46 H13         0.7965    2.4834   -2.2987 H         1 <0>         0.1165
     47 H14        -0.5512    3.3644   -4.1617 H         1 <0>         0.1121
     48 H15        -2.9915    3.5864   -3.9186 H         1 <0>         0.1126
     49 H16        -4.0853    2.9172   -1.8165 H         1 <0>         0.1131
     50 H17        -2.7388    2.0265    0.0427 H         1 <0>         0.1121
     51 H18        -1.9337   -3.3361    0.8366 H         1 <0>         0.1705
     52 H19        -1.2589   -2.5308   -3.2973 H         1 <0>         0.1697
@<TRIPOS>BOND
     1    1    2 1
     2    1   35 1
     3    1   36 1
     4    1   37 1
     5    2    3 1
     6    2    4 1
     7    3   38 1
     8    3   39 1
     9    3   40 1
    10    4    9 ar
    11    4    5 ar
    12    5    6 ar
    13    5   41 1
    14    6    7 ar
    15    6   42 1
    16    7    8 ar
    17    7   10 1
    18    8    9 ar
    19    8   43 1
    20    9   44 1
    21   10   11 2
    22   10   45 1
    23   11   17 1
    24   11   12 1
    25   12   13 2
    26   12   14 am
    27   14   15 1
    28   14   24 1
    29   15   16 1
    30   15   17 1
    31   15   18 1
    32   18   23 ar
    33   18   19 ar
    34   19   20 ar
    35   19   46 1
    36   20   21 ar
    37   20   47 1
    38   21   22 ar
    39   21   48 1
    40   22   23 ar
    41   22   49 1
    42   23   50 1
    43   24   29 ar
    44   24   25 ar
    45   25   26 ar
    46   25   34 1
    47   26   27 ar
    48   26   51 1
    49   27   28 ar
    50   27   31 1
    51   28   29 ar
    52   28   52 1
    53   29   30 1
    54   31   32 2
    55   31   33 1
@<TRIPOS>MOLECULE
ZINC35705375
   66    69     0     0     0
SMALL
USER_CHARGES

@<TRIPOS>ATOM
      1 C1          0.5342    1.0232    0.2556 C.3       1 <0>        -0.0905
      2 C2          0.1921   -0.4438    0.2131 C.2       1 <0>         0.3076
      3 C3         -1.1275   -0.8377    0.1002 C.2       1 <0>        -0.3904
      4 C4         -1.4197   -2.3211    0.0611 C.3       1 <0>         0.2730
      5 H1         -2.0930   -2.5523    0.8865 H         1 <0>         0.0686
      6 N1         -0.2557   -3.2426    0.1479 N.pl3     1 <0>        -0.5049
      7 C5         -0.2854   -4.6229    0.1312 C.2       1 <0>         0.2345
      8 C6          0.8939   -5.2765    0.2216 C.2       1 <0>        -0.3069
      9 S1          2.0546   -3.9291    0.3312 S.3       1 <0>         0.1241
     10 C7          0.9712   -2.6495    0.2552 C.2       1 <0>         0.3418
     11 N2          1.1578   -1.3458    0.2786 N.2       1 <0>        -0.5942
     12 C8         -1.5549   -5.3555    0.0194 C.2       1 <0>        -0.4694
     13 C9         -1.5716   -6.6966    0.1424 C.2       1 <0>         0.5015
     14 O1         -0.4073   -7.3814    0.2539 O.3       1 <0>        -0.7031
     15 N3         -2.7782   -7.3757    0.1549 N.pl3     1 <0>        -0.7484
     16 C10        -2.8027   -8.8213    0.3913 C.3       1 <0>         0.1970
     17 H2         -1.9911   -9.0929    1.0663 H         1 <0>         0.0883
     18 C11        -2.6287   -9.5585   -0.9381 C.3       1 <0>        -0.1521
     19 C12        -4.1214   -9.2068    1.0106 C.ar      1 <0>        -0.0757
     20 C13        -5.2915   -8.6204    0.5657 C.ar      1 <0>        -0.1131
     21 C14        -6.5012   -8.9740    1.1338 C.ar      1 <0>        -0.1194
     22 C15        -6.5407   -9.9143    2.1463 C.ar      1 <0>        -0.1304
     23 C16        -5.3707  -10.5013    2.5905 C.ar      1 <0>        -0.1199
     24 C17        -4.1615  -10.1508    2.0196 C.ar      1 <0>        -0.1130
     25 C18        -2.1495   -2.6165   -1.2239 C.ar      1 <0>        -0.1022
     26 C19        -3.5045   -2.8857   -1.2033 C.ar      1 <0>        -0.0394
     27 C20        -4.1744   -3.1573   -2.3817 C.ar      1 <0>        -0.1630
     28 C21        -3.4907   -3.1597   -3.5837 C.ar      1 <0>        -0.0833
     29 C22        -2.1362   -2.8907   -3.6097 C.ar      1 <0>        -0.2157
     30 C23        -1.4625   -2.6127   -2.4289 C.ar      1 <0>         0.1513
     31 O2         -0.1309   -2.3422   -2.4525 O.3       1 <0>        -0.3022
     32 C24         0.4898   -2.2503   -3.7363 C.3       1 <0>         0.0319
     33 C25        -2.1598    0.1051    0.0249 C.2       1 <0>         0.5350
     34 O3         -1.9067    1.2942    0.1114 O.2       1 <0>        -0.5544
     35 O4         -3.4370   -0.3033   -0.1437 O.3       1 <0>        -0.3483
     36 C26        -4.4253    0.7135   -0.3208 C.3       1 <0>         0.0826
     37 C27        -4.5431    1.0569   -1.8071 C.3       1 <0>        -0.1648
     38 C28        -5.7745    0.2087    0.1945 C.3       1 <0>        -0.1463
     39 H3          1.6143    1.1421    0.3410 H         1 <0>         0.0616
     40 H4          0.1870    1.5039   -0.6591 H         1 <0>         0.0818
     41 H5          0.0487    1.4848    1.1154 H         1 <0>         0.0855
     42 H6          1.0835   -6.3397    0.2267 H         1 <0>         0.2348
     43 H7         -2.4742   -4.8183   -0.1614 H         1 <0>         0.0895
     44 H8         -3.6072   -6.8943    0.0072 H         1 <0>         0.3830
     45 H9         -2.6469  -10.6340   -0.7622 H         1 <0>         0.0503
     46 H10        -3.4403   -9.2869   -1.6131 H         1 <0>         0.0465
     47 H11        -1.6749   -9.2797   -1.3860 H         1 <0>         0.0676
     48 H12        -5.2607   -7.8859   -0.2254 H         1 <0>         0.1197
     49 H13        -7.4153   -8.5154    0.7867 H         1 <0>         0.1186
     50 H14        -7.4857  -10.1900    2.5906 H         1 <0>         0.1170
     51 H15        -5.4015  -11.2356    3.3819 H         1 <0>         0.1190
     52 H16        -3.2478  -10.6122    2.3641 H         1 <0>         0.1223
     53 H17        -4.0407   -2.8844   -0.2658 H         1 <0>         0.1225
     54 H18        -5.2335   -3.3682   -2.3634 H         1 <0>         0.1159
     55 H19        -4.0163   -3.3725   -4.5029 H         1 <0>         0.1149
     56 H20        -1.6027   -2.8928   -4.5487 H         1 <0>         0.1190
     57 H21         0.0339   -1.4384   -4.3030 H         1 <0>         0.0480
     58 H22         1.5546   -2.0532   -3.6118 H         1 <0>         0.0944
     59 H23         0.3544   -3.1890   -4.2735 H         1 <0>         0.0510
     60 H24        -4.1340    1.6042    0.2358 H         1 <0>         0.0761
     61 H25        -3.5634    1.3370   -2.1941 H         1 <0>         0.0568
     62 H26        -4.9145    0.1890   -2.3522 H         1 <0>         0.0616
     63 H27        -5.2354    1.8892   -1.9340 H         1 <0>         0.0628
     64 H28        -5.6700   -0.1144    1.2303 H         1 <0>         0.0615
     65 H29        -6.5091    1.0118    0.1368 H         1 <0>         0.0685
     66 H30        -6.1056   -0.6312   -0.4164 H         1 <0>         0.0638
@<TRIPOS>BOND
     1    1    2 1
     2    1   39 1
     3    1   40 1
     4    1   41 1
     5    2   11 1
     6    2    3 2
     7    3    4 1
     8    3   33 1
     9    4    5 1
    10    4    6 1
    11    4   25 1
    12    6   10 1
    13    6    7 1
    14    7    8 2
    15    7   12 1
    16    8    9 1
    17    8   42 1
    18    9   10 1
    19   10   11 2
    20   12   13 2
    21   12   43 1
    22   13   14 1
    23   13   15 1
    24   15   16 1
    25   15   44 1
    26   16   17 1
    27   16   18 1
    28   16   19 1
    29   18   45 1
    30   18   46 1
    31   18   47 1
    32   19   24 ar
    33   19   20 ar
    34   20   21 ar
    35   20   48 1
    36   21   22 ar
    37   21   49 1
    38   22   23 ar
    39   22   50 1
    40   23   24 ar
    41   23   51 1
    42   24   52 1
    43   25   30 ar
    44   25   26 ar
    45   26   27 ar
    46   26   53 1
    47   27   28 ar
    48   27   54 1
    49   28   29 ar
    50   28   55 1
    51   29   30 ar
    52   29   56 1
    53   30   31 1
    54   31   32 1
    55   32   57 1
    56   32   58 1
    57   32   59 1
    58   33   34 2
    59   33   35 1
    60   35   36 1
    61   36   37 1
    62   36   38 1
    63   36   60 1
    64   37   61 1
    65   37   62 1
    66   37   63 1
    67   38   64 1
    68   38   65 1
    69   38   66 1
@<TRIPOS>MOLECULE
ZINC08973908
   60    64     0     0     0
SMALL
USER_CHARGES

@<TRIPOS>ATOM
      1 C1         -2.0806    1.6450    2.4195 C.3       1 <0>        -0.1063
      2 C2         -1.6785    0.2366    2.0648 C.ar      1 <0>        -0.0819
      3 C3         -1.2765   -0.0733    0.7733 C.ar      1 <0>        -0.1108
      4 C4         -0.9064   -1.3455    0.4243 C.ar      1 <0>        -0.0365
      5 C5         -0.9227   -2.3901    1.3778 C.ar      1 <0>         0.1147
      6 C6         -1.3371   -2.0375    2.6827 C.ar      1 <0>        -0.1559
      7 C7         -1.7010   -0.7588    3.0242 C.ar      1 <0>        -0.0647
      8 S1         -1.2193   -3.5847    3.5479 S.3       1 <0>         0.0021
      9 C8         -0.6469   -4.5692    2.1705 C.2       1 <0>         0.4218
     10 N1         -0.5909   -3.6867    1.1998 N.2       1 <0>        -0.5354
     11 N2         -0.3410   -5.9181    2.1356 N.am      1 <0>        -0.5090
     12 C9         -0.4328   -6.8538    3.2626 C.3       1 <0>         0.2636
     13 H1          0.2297   -6.5366    4.0680 H         1 <0>         0.0853
     14 C10         0.0037   -8.1986    2.7300 C.2       1 <0>        -0.4884
     15 C11         0.0806   -9.4539    3.4824 C.2       1 <0>         0.5054
     16 C12         1.0297   -9.5837    4.6088 C.ar      1 <0>        -0.1374
     17 C13         1.9310   -8.5543    4.8888 C.ar      1 <0>        -0.0676
     18 C14         2.8132   -8.6817    5.9413 C.ar      1 <0>        -0.1372
     19 C15         2.8066   -9.8263    6.7192 C.ar      1 <0>        -0.1059
     20 C16         1.9161  -10.8502    6.4473 C.ar      1 <0>        -0.1370
     21 C17         1.0248  -10.7337    5.4011 C.ar      1 <0>        -0.0736
     22 O1         -0.6365  -10.3892    3.1803 O.2       1 <0>        -0.4656
     23 C18         0.3097   -8.0202    1.4228 C.2       1 <0>         0.2734
     24 O2          0.7439   -8.9857    0.5805 O.3       1 <0>        -0.6340
     25 C19         0.0877   -6.6051    1.0613 C.2       1 <0>         0.5110
     26 O3          0.2679   -6.1312   -0.0429 O.2       1 <0>        -0.4661
     27 C20        -1.8538   -6.9294    3.7589 C.ar      1 <0>        -0.0892
     28 C21        -2.8985   -6.9956    2.8561 C.ar      1 <0>        -0.0842
     29 C22        -4.2019   -7.0650    3.3113 C.ar      1 <0>        -0.1152
     30 C23        -4.4605   -7.0685    4.6693 C.ar      1 <0>        -0.0785
     31 C24        -3.4157   -7.0031    5.5720 C.ar      1 <0>        -0.1139
     32 C25        -2.1121   -6.9381    5.1168 C.ar      1 <0>        -0.1019
     33 C26        -5.8815   -7.1431    5.1655 C.3       1 <0>        -0.0551
     34 C27        -6.0567   -8.3971    6.0243 C.3       1 <0>        -0.1431
     35 C28        -6.1945   -5.9025    6.0045 C.3       1 <0>        -0.1420
     36 C29        -0.4778   -1.6352   -0.9911 C.3       1 <0>        -0.1111
     37 H2         -1.2036    2.2004    2.7519 H         1 <0>         0.0705
     38 H3         -2.5087    2.1322    1.5435 H         1 <0>         0.0675
     39 H4         -2.8203    1.6210    3.2198 H         1 <0>         0.0663
     40 H5         -1.2551    0.7062    0.0261 H         1 <0>         0.1284
     41 H6         -2.0073   -0.5326    4.0349 H         1 <0>         0.1278
     42 H7          1.9374   -7.6607    4.2823 H         1 <0>         0.1311
     43 H8          3.5110   -7.8866    6.1587 H         1 <0>         0.1221
     44 H9          3.4998   -9.9211    7.5419 H         1 <0>         0.1189
     45 H10         1.9162  -11.7408    7.0583 H         1 <0>         0.1211
     46 H11         0.3276  -11.5317    5.1926 H         1 <0>         0.1287
     47 H12        -2.6965   -6.9929    1.7952 H         1 <0>         0.1133
     48 H13        -5.0182   -7.1160    2.6060 H         1 <0>         0.1169
     49 H14        -3.6178   -7.0055    6.6329 H         1 <0>         0.1184
     50 H15        -1.2956   -6.8908    5.8221 H         1 <0>         0.1207
     51 H16        -6.5616   -7.1874    4.3148 H         1 <0>         0.0741
     52 H17        -7.0845   -8.4511    6.3833 H         1 <0>         0.0539
     53 H18        -5.8337   -9.2809    5.4266 H         1 <0>         0.0569
     54 H19        -5.3766   -8.3528    6.8750 H         1 <0>         0.0563
     55 H20        -6.0698   -5.0091    5.3927 H         1 <0>         0.0551
     56 H21        -7.2223   -5.9565    6.3635 H         1 <0>         0.0538
     57 H22        -5.5144   -5.8582    6.8552 H         1 <0>         0.0563
     58 H23         0.5988   -1.4907   -1.0815 H         1 <0>         0.0706
     59 H24        -0.7285   -2.6656   -1.2430 H         1 <0>         0.0783
     60 H25        -0.9936   -0.9587   -1.6726 H         1 <0>         0.0633
@<TRIPOS>BOND
     1    1    2 1
     2    1   37 1
     3    1   38 1
     4    1   39 1
     5    2    7 ar
     6    2    3 ar
     7    3    4 ar
     8    3   40 1
     9    4    5 ar
    10    4   36 1
    11    5   10 1
    12    5    6 ar
    13    6    7 ar
    14    6    8 1
    15    7   41 1
    16    8    9 1
    17    9   10 2
    18    9   11 1
    19   11   25 am
    20   11   12 1
    21   12   14 1
    22   12   27 1
    23   12   13 1
    24   14   23 2
    25   14   15 1
    26   15   22 2
    27   15   16 1
    28   16   21 ar
    29   16   17 ar
    30   17   18 ar
    31   17   42 1
    32   18   19 ar
    33   18   43 1
    34   19   20 ar
    35   19   44 1
    36   20   21 ar
    37   20   45 1
    38   21   46 1
    39   23   25 1
    40   23   24 1
    41   25   26 2
    42   27   32 ar
    43   27   28 ar
    44   28   29 ar
    45   28   47 1
    46   29   30 ar
    47   29   48 1
    48   30   31 ar
    49   30   33 1
    50   31   32 ar
    51   31   49 1
    52   32   50 1
    53   33   34 1
    54   33   35 1
    55   33   51 1
    56   34   52 1
    57   34   53 1
    58   34   54 1
    59   35   55 1
    60   35   56 1
    61   35   57 1
    62   36   58 1
    63   36   59 1
    64   36   60 1
@<TRIPOS>MOLECULE
ZINC01884925
   75    81     0     0     0
SMALL
USER_CHARGES

@<TRIPOS>ATOM
      1 C1          0.9701    1.4941   -0.0974 C.3       1 <0>        -0.0741
      2 C2          0.9178   -0.0120   -0.0973 C.2       1 <0>         0.1302
      3 C3          0.6586   -0.8129   -1.1991 C.2       1 <0>        -0.3049
      4 C4          0.6991   -2.1362   -0.7917 C.2       1 <0>         0.3295
      5 N1          0.9813   -2.1219    0.5478 N.pl3     1 <0>        -0.3037
      6 N2          1.1154   -0.7847    0.9437 N.2       1 <0>        -0.2794
      7 C5          1.1167   -3.2443    1.3742 C.ar      1 <0>         0.1518
      8 C6          0.3320   -4.3689    1.1545 C.ar      1 <0>        -0.1105
      9 C7          0.4679   -5.4742    1.9713 C.ar      1 <0>        -0.0976
     10 C8          1.3838   -5.4618    3.0073 C.ar      1 <0>        -0.1193
     11 C9          2.1664   -4.3434    3.2289 C.ar      1 <0>        -0.1063
     12 C10         2.0400   -3.2373    2.4116 C.ar      1 <0>        -0.1128
     13 N3          0.4794   -3.1372   -1.6716 N.2       1 <0>        -0.5583
     14 C11         0.2173   -2.9633   -2.9433 C.2       1 <0>         0.4333
     15 C12        -0.0063   -4.1326   -3.8139 C.2       1 <0>         0.4460
     16 N4         -0.2690   -3.9628   -5.0857 N.2       1 <0>        -0.5011
     17 C13        -0.3436   -2.7259   -5.6388 C.ar      1 <0>         0.1035
     18 C14        -0.6270   -2.5853   -7.0030 C.ar      1 <0>        -0.0680
     19 C15        -0.7029   -1.3302   -7.5631 C.ar      1 <0>        -0.1235
     20 C16        -0.5005   -0.2003   -6.7850 C.ar      1 <0>        -0.0968
     21 C17        -0.2199   -0.3196   -5.4393 C.ar      1 <0>        -0.1345
     22 C18        -0.1393   -1.5768   -4.8544 C.ar      1 <0>         0.1095
     23 N5          0.1411   -1.7091   -3.5071 N.pl3     1 <0>        -0.4998
     24 C19         0.3615   -0.5314   -2.6552 C.3       1 <0>         0.2694
     25 H1         -0.5286    0.0958   -2.7056 H         1 <0>         0.0883
     26 C20         1.5138    0.2538   -3.2269 C.ar      1 <0>        -0.1008
     27 C21         2.6701   -0.3978   -3.6132 C.ar      1 <0>        -0.0880
     28 C22         3.7271    0.3224   -4.1376 C.ar      1 <0>        -0.1077
     29 C23         3.6276    1.6942   -4.2761 C.ar      1 <0>        -0.0625
     30 C24         2.4709    2.3457   -3.8906 C.ar      1 <0>        -0.1160
     31 C25         1.4123    1.6250   -3.3702 C.ar      1 <0>        -0.1060
     32 C26         4.7802    2.4795   -4.8468 C.3       1 <0>        -0.0299
     33 C27         5.0819    1.9859   -6.2633 C.3       1 <0>        -0.1389
     34 C28         4.4134    3.9642   -4.8914 C.3       1 <0>        -0.1437
     35 C29         6.0156    2.2856   -3.9653 C.3       1 <0>        -0.1392
     36 N6          0.0620   -5.4093   -3.2870 N.pl3     1 <0>        -0.6136
     37 C30        -0.0324   -6.5195   -4.1308 C.ar      1 <0>         0.1221
     38 C31         0.5572   -6.4880   -5.3898 C.ar      1 <0>        -0.1109
     39 C32         0.4671   -7.5830   -6.2285 C.ar      1 <0>        -0.1241
     40 C33        -0.2092   -8.7154   -5.8228 C.ar      1 <0>        -0.0918
     41 C34        -0.8054   -8.7580   -4.5599 C.ar      1 <0>        -0.1170
     42 C35        -0.7089   -7.6540   -3.7105 C.ar      1 <0>        -0.0989
     43 C36        -1.5297   -9.9672   -4.1233 C.2       1 <0>         0.5211
     44 O1         -1.6089  -10.9345   -4.8673 O.co2     1 <0>        -0.6855
     45 O2         -2.0507  -10.0021   -3.0175 O.co2     1 <0>        -0.6870
     46 H2          1.9868    1.8223   -0.3134 H         1 <0>         0.0809
     47 H3          0.2937    1.8811   -0.8595 H         1 <0>         0.0770
     48 H4          0.6676    1.8682    0.8807 H         1 <0>         0.0768
     49 H5         -0.3840   -4.3789    0.3461 H         1 <0>         0.1350
     50 H6         -0.1421   -6.3490    1.8010 H         1 <0>         0.1366
     51 H7          1.4880   -6.3273    3.6449 H         1 <0>         0.1291
     52 H8          2.8803   -4.3365    4.0393 H         1 <0>         0.1299
     53 H9          2.6551   -2.3661    2.5819 H         1 <0>         0.1297
     54 H10        -0.7854   -3.4609   -7.6151 H         1 <0>         0.1409
     55 H11        -0.9212   -1.2247   -8.6155 H         1 <0>         0.1307
     56 H12        -0.5625    0.7794   -7.2353 H         1 <0>         0.1280
     57 H13        -0.0632    0.5653   -4.8402 H         1 <0>         0.1329
     58 H14         2.7478   -1.4696   -3.5051 H         1 <0>         0.1073
     59 H15         4.6307   -0.1866   -4.4388 H         1 <0>         0.1193
     60 H16         2.3933    3.4175   -3.9985 H         1 <0>         0.1291
     61 H17         0.5073    2.1335   -3.0725 H         1 <0>         0.1242
     62 H18         4.2018    2.1240   -6.8913 H         1 <0>         0.0575
     63 H19         5.9156    2.5539   -6.6761 H         1 <0>         0.0581
     64 H20         5.3432    0.9282   -6.2315 H         1 <0>         0.0566
     65 H21         4.1985    4.3158   -3.8823 H         1 <0>         0.0587
     66 H22         5.2471    4.5322   -5.3042 H         1 <0>         0.0577
     67 H23         3.5333    4.1023   -5.5195 H         1 <0>         0.0593
     68 H24         6.2769    1.2279   -3.9335 H         1 <0>         0.0562
     69 H25         6.8493    2.8536   -4.3781 H         1 <0>         0.0585
     70 H26         5.8007    2.6372   -2.9562 H         1 <0>         0.0563
     71 H27         0.1754   -5.5344   -2.3318 H         1 <0>         0.4273
     72 H28         1.0873   -5.6046   -5.7137 H         1 <0>         0.1215
     73 H29         0.9272   -7.5521   -7.2051 H         1 <0>         0.1172
     74 H30        -0.2779   -9.5685   -6.4815 H         1 <0>         0.1269
     75 H31        -1.1636   -7.6822   -2.7312 H         1 <0>         0.1284
@<TRIPOS>BOND
     1    1    2 1
     2    1   46 1
     3    1   47 1
     4    1   48 1
     5    2    6 2
     6    2    3 1
     7    3   24 1
     8    3    4 2
     9    4    5 1
    10    4   13 1
    11    5    6 1
    12    5    7 1
    13    7   12 ar
    14    7    8 ar
    15    8    9 ar
    16    8   49 1
    17    9   10 ar
    18    9   50 1
    19   10   11 ar
    20   10   51 1
    21   11   12 ar
    22   11   52 1
    23   12   53 1
    24   13   14 2
    25   14   23 1
    26   14   15 1
    27   15   16 2
    28   15   36 1
    29   16   17 1
    30   17   22 ar
    31   17   18 ar
    32   18   19 ar
    33   18   54 1
    34   19   20 ar
    35   19   55 1
    36   20   21 ar
    37   20   56 1
    38   21   22 ar
    39   21   57 1
    40   22   23 1
    41   23   24 1
    42   24   25 1
    43   24   26 1
    44   26   31 ar
    45   26   27 ar
    46   27   28 ar
    47   27   58 1
    48   28   29 ar
    49   28   59 1
    50   29   30 ar
    51   29   32 1
    52   30   31 ar
    53   30   60 1
    54   31   61 1
    55   32   33 1
    56   32   34 1
    57   32   35 1
    58   33   62 1
    59   33   63 1
    60   33   64 1
    61   34   65 1
    62   34   66 1
    63   34   67 1
    64   35   68 1
    65   35   69 1
    66   35   70 1
    67   36   37 1
    68   36   71 1
    69   37   42 ar
    70   37   38 ar
    71   38   39 ar
    72   38   72 1
    73   39   40 ar
    74   39   73 1
    75   40   41 ar
    76   40   74 1
    77   41   42 ar
    78   41   43 1
    79   42   75 1
    80   43   44 2
    81   43   45 1
@<TRIPOS>MOLECULE
ZINC22506258
   64    66     0     0     0
SMALL
USER_CHARGES

@<TRIPOS>ATOM
      1 C1          0.0255    1.5729    0.0595 C.3       1 <0>        -0.1391
      2 C2          0.0400    0.0467    0.0415 C.3       1 <0>        -0.0282
      3 H1         -1.0029   -0.3060    0.0458 H         1 <0>         0.0751
      4 C3          0.7158   -0.4764   -1.2223 C.3       1 <0>        -0.1033
      5 C4          2.0124    0.2756   -1.5110 C.3       1 <0>        -0.1202
      6 C5          2.9024   -0.5757   -2.4241 C.3       1 <0>        -0.1224
      7 C6          4.3646   -0.1724   -2.2237 C.3       1 <0>        -0.1194
      8 C7          5.0323   -1.1339   -1.2392 C.3       1 <0>        -0.1232
      9 C8          5.4728   -0.3680    0.0095 C.3       1 <0>        -0.1175
     10 C9          5.1128   -1.1730    1.2592 C.3       1 <0>        -0.1214
     11 C10         4.3280   -0.2921    2.2321 C.3       1 <0>        -0.1257
     12 C11         2.9066   -0.8364    2.3878 C.3       1 <0>        -0.0913
     13 C12         1.9028    0.2060    1.8847 C.3       1 <0>        -0.0931
     14 C13         0.7225   -0.4942    1.2675 C.2       1 <0>         0.0997
     15 N1          0.2843   -1.5776    1.8028 N.2       1 <0>        -0.3164
     16 N2          0.9076   -2.0963    2.9453 N.2       1 <0>        -0.4472
     17 C14         0.4422   -3.2471    3.5138 C.2       1 <0>         0.4614
     18 N3         -0.5747   -4.0027    3.1203 N.2       1 <0>        -0.7101
     19 C15        -0.9589   -5.0955    3.7213 C.2       1 <0>         0.5179
     20 O1         -1.8975   -5.7593    3.3261 O.2       1 <0>        -0.5537
     21 C16        -0.1484   -5.4817    4.9527 C.3       1 <0>        -0.1024
     22 H2          0.3499   -6.4415    4.8164 H         1 <0>         0.1265
     23 S1          1.0646   -4.0950    4.9596 S.3       1 <0>        -0.2278
     24 C17        -1.0141   -5.4809    6.2143 C.3       1 <0>        -0.1034
     25 C18        -0.2033   -5.9855    7.3801 C.2       1 <0>         0.5208
     26 O2          0.9531   -6.3134    7.2179 O.2       1 <0>        -0.5020
     27 N4         -0.7632   -6.0723    8.6030 N.am      1 <0>        -0.6770
     28 C19        -0.0413   -6.6283    9.6653 C.ar      1 <0>         0.1835
     29 C20         1.3319   -6.4390    9.7480 C.ar      1 <0>        -0.1168
     30 C21         2.0415   -6.9885   10.7978 C.ar      1 <0>        -0.0844
     31 C22         1.3863   -7.7273   11.7661 C.ar      1 <0>        -0.1356
     32 C23         0.0193   -7.9185   11.6870 C.ar      1 <0>        -0.0744
     33 C24        -0.6977   -7.3661   10.6425 C.ar      1 <0>        -0.1254
     34 Br1        -2.5686   -7.6213   10.5390 Br        1 <0>        -0.0481
     35 H3          1.0497    1.9460    0.0557 H         1 <0>         0.0576
     36 H4         -0.4988    1.9417   -0.8220 H         1 <0>         0.0535
     37 H5         -0.4845    1.9209    0.9578 H         1 <0>         0.0522
     38 H6          0.9356   -1.5405   -1.0992 H         1 <0>         0.0635
     39 H7          0.0355   -0.3601   -2.0708 H         1 <0>         0.0560
     40 H8          1.7913    1.2156   -2.0191 H         1 <0>         0.0554
     41 H9          2.5483    0.4756   -0.5861 H         1 <0>         0.0742
     42 H10         2.7741   -1.6278   -2.1775 H         1 <0>         0.0636
     43 H11         2.6179   -0.4064   -3.4624 H         1 <0>         0.0526
     44 H12         4.8858   -0.2149   -3.1805 H         1 <0>         0.0519
     45 H13         4.4109    0.8436   -1.8327 H         1 <0>         0.0641
     46 H14         4.3271   -1.9156   -0.9576 H         1 <0>         0.0684
     47 H15         5.9045   -1.5881   -1.7115 H         1 <0>         0.0528
     48 H16         6.5533   -0.2166   -0.0226 H         1 <0>         0.0513
     49 H17         4.9744    0.5996    0.0411 H         1 <0>         0.0651
     50 H18         4.5091   -2.0352    0.9771 H         1 <0>         0.0666
     51 H19         6.0279   -1.5195    1.7429 H         1 <0>         0.0502
     52 H20         4.8244   -0.2946    3.2039 H         1 <0>         0.0494
     53 H21         4.2882    0.7286    1.8524 H         1 <0>         0.0575
     54 H22         2.8004   -1.7524    1.8083 H         1 <0>         0.0638
     55 H23         2.7118   -1.0463    3.4395 H         1 <0>         0.0749
     56 H24         1.5652    0.8107    2.7295 H         1 <0>         0.0568
     57 H25         2.3918    0.8489    1.1573 H         1 <0>         0.0601
     58 H26        -1.3547   -4.4663    6.4206 H         1 <0>         0.1056
     59 H27        -1.8766   -6.1301    6.0635 H         1 <0>         0.1153
     60 H28        -1.6665   -5.7494    8.7469 H         1 <0>         0.4136
     61 H29         1.8446   -5.8628    8.9920 H         1 <0>         0.1517
     62 H30         3.1094   -6.8415   10.8624 H         1 <0>         0.1322
     63 H31         1.9438   -8.1562   12.5856 H         1 <0>         0.1307
     64 H32        -0.4893   -8.4965   12.4444 H         1 <0>         0.1339
@<TRIPOS>BOND
     1    1    2 1
     2    1   35 1
     3    1   36 1
     4    1   37 1
     5    2    3 1
     6    2   14 1
     7    2    4 1
     8    4    5 1
     9    4   38 1
    10    4   39 1
    11    5    6 1
    12    5   40 1
    13    5   41 1
    14    6    7 1
    15    6   42 1
    16    6   43 1
    17    7    8 1
    18    7   44 1
    19    7   45 1
    20    8    9 1
    21    8   46 1
    22    8   47 1
    23    9   10 1
    24    9   48 1
    25    9   49 1
    26   10   11 1
    27   10   50 1
    28   10   51 1
    29   11   12 1
    30   11   52 1
    31   11   53 1
    32   12   13 1
    33   12   54 1
    34   12   55 1
    35   13   14 1
    36   13   56 1
    37   13   57 1
    38   14   15 2
    39   15   16 1
    40   16   17 1
    41   17   23 1
    42   17   18 2
    43   18   19 1
    44   19   20 2
    45   19   21 1
    46   21   22 1
    47   21   23 1
    48   21   24 1
    49   24   25 1
    50   24   58 1
    51   24   59 1
    52   25   26 2
    53   25   27 am
    54   27   28 1
    55   27   60 1
    56   28   33 ar
    57   28   29 ar
    58   29   30 ar
    59   29   61 1
    60   30   31 ar
    61   30   62 1
    62   31   32 ar
    63   31   63 1
    64   32   33 ar
    65   32   64 1
    66   33   34 1
@<TRIPOS>MOLECULE
ZINC16926763
   41    43     0     0     0
SMALL
USER_CHARGES
5-[(5Z)-5-[(4-methoxycarbonylphenyl)methylene]-4-oxo-2-thioxo-thiazolidin-3-yl]benzene-1,3-dicarboxylic acid
@<TRIPOS>ATOM
      1 C1         -7.5720    3.3992   -0.6964 C.3       1 <0>         0.0370
      2 O1         -6.2717    2.7550   -0.6477 O.3       1 <0>        -0.3526
      3 C2         -5.3381    3.3204    0.1424 C.2       1 <0>         0.5107
      4 O2         -5.6033    4.3241    0.7734 O.2       1 <0>        -0.5058
      5 C3         -3.9932    2.7202    0.2414 C.ar      1 <0>        -0.1188
      6 C4         -3.0248    3.3074    1.0615 C.ar      1 <0>        -0.0547
      7 C5         -1.7801    2.7530    1.1539 C.ar      1 <0>        -0.0967
      8 C6         -1.4737    1.5958    0.4267 C.ar      1 <0>        -0.0367
      9 C7         -2.4429    1.0116   -0.3985 C.ar      1 <0>        -0.1094
     10 C8         -3.6888    1.5647   -0.4847 C.ar      1 <0>        -0.0516
     11 C9         -0.1349    0.9987    0.5248 C.2       1 <0>         0.0377
     12 C10         0.1094   -0.2137   -0.0321 C.2       1 <0>        -0.1926
     13 C11         1.3910   -0.9380   -0.1926 C.2       1 <0>         0.5339
     14 O3          2.4441   -0.4697    0.1969 O.2       1 <0>        -0.4281
     15 N1          1.3303   -2.1222   -0.7782 N.am      1 <0>        -0.4548
     16 C12         0.1617   -2.6343   -1.2143 C.2       1 <0>         0.2617
     17 S1         -0.1163   -4.1329   -1.9941 S.2       1 <0>        -0.2957
     18 S2         -1.0260   -1.3734   -0.7815 S.3       1 <0>         0.0456
     19 C13         2.5094   -2.8595   -0.9554 C.ar      1 <0>         0.0283
     20 C14         3.4751   -2.4160   -1.8463 C.ar      1 <0>        -0.0471
     21 C15         4.6531   -3.1452   -2.0219 C.ar      1 <0>        -0.1295
     22 C16         4.8530   -4.3254   -1.3079 C.ar      1 <0>        -0.0028
     23 C17         3.8777   -4.7707   -0.4174 C.ar      1 <0>        -0.1272
     24 C18         2.7045   -4.0336   -0.2436 C.ar      1 <0>        -0.0425
     25 C19         4.0852   -6.0210    0.3422 C.2       1 <0>         0.5002
     26 O4          3.2349   -6.4082    1.1184 O.co2     1 <0>        -0.6405
     27 C20         5.6838   -2.6691   -2.9675 C.2       1 <0>         0.5000
     28 O5          5.5088   -1.6405   -3.5893 O.co2     1 <0>        -0.6424
     29 H1         -7.4584    4.4199   -1.0616 H         1 <0>         0.0637
     30 H2         -8.2276    2.8442   -1.3674 H         1 <0>         0.1038
     31 H3         -8.0063    3.4172    0.3032 H         1 <0>         0.0638
     32 H4         -3.2612    4.1999    1.6218 H         1 <0>         0.1438
     33 H5         -1.0324    3.2065    1.7877 H         1 <0>         0.1455
     34 H6         -2.2067    0.1217   -0.9629 H         1 <0>         0.1415
     35 H7         -4.4377    1.1119   -1.1176 H         1 <0>         0.1468
     36 H8          0.6558    1.5272    1.0366 H         1 <0>         0.1675
     37 H9          3.3179   -1.5033   -2.4019 H         1 <0>         0.1217
     38 H10         5.7615   -4.8932   -1.4442 H         1 <0>         0.1491
     39 H11         1.9484   -4.3780    0.4463 H         1 <0>         0.1239
     40 O6          5.2172   -6.7314    0.1738 O.co2     1 <0>        -0.7488
     41 O7          6.8175   -3.3759   -3.1400 O.co2     1 <0>        -0.7480
@<TRIPOS>BOND
     1    1    2 1
     2    1   29 1
     3    1   30 1
     4    1   31 1
     5    2    3 1
     6    3    4 2
     7    3    5 1
     8    5   10 ar
     9    5    6 ar
    10    6    7 ar
    11    6   32 1
    12    7    8 ar
    13    7   33 1
    14    8    9 ar
    15    8   11 1
    16    9   10 ar
    17    9   34 1
    18   10   35 1
    19   11   12 2
    20   11   36 1
    21   12   18 1
    22   12   13 1
    23   13   14 2
    24   13   15 am
    25   15   16 1
    26   15   19 1
    27   16   17 2
    28   16   18 1
    29   19   24 ar
    30   19   20 ar
    31   20   21 ar
    32   20   37 1
    33   21   22 ar
    34   21   27 1
    35   22   23 ar
    36   22   38 1
    37   23   24 ar
    38   23   25 1
    39   24   39 1
    40   25   26 2
    41   25   40 1
    42   27   28 2
    43   27   41 1
@<TRIPOS>MOLECULE
ZINC36048604
   49    51     0     0     0
SMALL
USER_CHARGES

@<TRIPOS>ATOM
      1 C1          1.3639    1.6958   -0.7545 C.3       1 <0>        -0.1506
      2 C2          1.1564    0.1800   -0.7359 C.3       1 <0>         0.0673
      3 O1          1.6425   -0.3521    0.4980 O.3       1 <0>        -0.3551
      4 C3          1.6273   -1.6951    0.6345 C.2       1 <0>         0.5355
      5 O2          1.2998   -2.3984   -0.3032 O.2       1 <0>        -0.5675
      6 C4          1.9915   -2.2841    1.8660 C.2       1 <0>        -0.4070
      7 C5          1.8556   -3.6254    2.0721 C.2       1 <0>         0.2993
      8 N1          2.2001   -4.1743    3.2333 N.2       1 <0>        -0.6057
      9 C6          2.6827   -3.5181    4.2526 C.2       1 <0>         0.3189
     10 N2          2.8972   -2.1629    4.2519 N.pl3     1 <0>        -0.4924
     11 C7          2.5508   -1.4480    2.9963 C.3       1 <0>         0.2826
     12 H1          1.8170   -0.6804    3.2419 H         1 <0>         0.0587
     13 C8          3.7907   -0.7551    2.4928 C.ar      1 <0>        -0.1285
     14 C9          3.7527    0.5920    2.1866 C.ar      1 <0>        -0.0041
     15 C10         4.8877    1.2301    1.7248 C.ar      1 <0>        -0.2437
     16 C11         6.0693    0.5192    1.5673 C.ar      1 <0>         0.1530
     17 C12         6.1100   -0.8320    1.8738 C.ar      1 <0>        -0.2491
     18 C13         4.9710   -1.4689    2.3425 C.ar      1 <0>         0.1919
     19 O3          5.0094   -2.7922    2.6495 O.3       1 <0>        -0.2885
     20 C14         6.2810   -3.4395    2.5721 C.3       1 <0>         0.0309
     21 O4          7.1854    1.1473    1.1126 O.3       1 <0>        -0.3234
     22 C15         7.0705    2.5405    0.8162 C.3       1 <0>         0.0312
     23 C16         3.4097   -1.6345    5.4048 C.2       1 <0>         0.2284
     24 C17         3.6714   -2.5661    6.5052 C.2       1 <0>        -0.5097
     25 S1          3.2001   -4.0479    5.8695 S.3       1 <0>         0.1590
     26 C18         3.6688   -0.2860    5.5259 C.2       1 <0>        -0.4426
     27 C19         4.3488    0.2047    6.6672 C.2       1 <0>         0.4948
     28 O5          4.8600   -0.6479    7.5570 O.co2     1 <0>        -0.7481
     29 O6          4.4783    1.5197    6.8525 O.co2     1 <0>        -0.7901
     30 C20         1.3079   -4.4960    0.9706 C.3       1 <0>        -0.0984
     31 H2          2.4139    1.9211   -0.5679 H         1 <0>         0.0653
     32 H3          1.0752    2.0901   -1.7288 H         1 <0>         0.0659
     33 H4          0.7503    2.1560    0.0200 H         1 <0>         0.0623
     34 H5          0.0939   -0.0425   -0.8342 H         1 <0>         0.0523
     35 H6          1.7004   -0.2713   -1.5657 H         1 <0>         0.0553
     36 H7          2.8341    1.1467    2.3082 H         1 <0>         0.1257
     37 H8          4.8554    2.2828    1.4859 H         1 <0>         0.1204
     38 H9          7.0286   -1.3868    1.7519 H         1 <0>         0.1261
     39 H10         6.7030   -3.2938    1.5777 H         1 <0>         0.0454
     40 H11         6.9519   -3.0127    3.3176 H         1 <0>         0.0535
     41 H12         6.1580   -4.5058    2.7620 H         1 <0>         0.0926
     42 H13         6.3165    2.6864    0.0426 H         1 <0>         0.0500
     43 H14         6.7767    3.0805    1.7163 H         1 <0>         0.0565
     44 H15         8.0305    2.9173    0.4635 H         1 <0>         0.0901
     45 H16         4.0700   -2.3522    7.4859 H         1 <0>         0.2068
     46 H17         3.3533    0.3963    4.7504 H         1 <0>         0.0679
     47 H18         2.1135   -4.7698    0.2893 H         1 <0>         0.0697
     48 H19         0.8747   -5.3983    1.4022 H         1 <0>         0.0536
     49 H20         0.5395   -3.9497    0.4238 H         1 <0>         0.0938
@<TRIPOS>BOND
     1    1    2 1
     2    1   31 1
     3    1   32 1
     4    1   33 1
     5    2    3 1
     6    2   34 1
     7    2   35 1
     8    3    4 1
     9    4    5 2
    10    4    6 1
    11    6   11 1
    12    6    7 2
    13    7    8 1
    14    7   30 1
    15    8    9 2
    16    9   25 1
    17    9   10 1
    18   10   11 1
    19   10   23 1
    20   11   12 1
    21   11   13 1
    22   13   18 ar
    23   13   14 ar
    24   14   15 ar
    25   14   36 1
    26   15   16 ar
    27   15   37 1
    28   16   17 ar
    29   16   21 1
    30   17   18 ar
    31   17   38 1
    32   18   19 1
    33   19   20 1
    34   20   39 1
    35   20   40 1
    36   20   41 1
    37   21   22 1
    38   22   42 1
    39   22   43 1
    40   22   44 1
    41   23   24 2
    42   23   26 1
    43   24   25 1
    44   24   45 1
    45   26   27 2
    46   26   46 1
    47   27   28 1
    48   27   29 1
    49   30   47 1
    50   30   48 1
    51   30   49 1
@<TRIPOS>MOLECULE
ZINC13213646
   49    52     0     0     0
SMALL
USER_CHARGES

@<TRIPOS>ATOM
      1 C1          1.0684    1.1172   -0.5727 C.3       1 <0>         0.0246
      2 O1          0.8369   -0.2905   -0.4895 O.3       1 <0>        -0.2819
      3 C2          0.2135   -0.7473    0.6253 C.ar      1 <0>         0.1657
      4 C3         -0.1745    0.1389    1.6191 C.ar      1 <0>        -0.2314
      5 C4         -0.8094   -0.3275    2.7531 C.ar      1 <0>        -0.0688
      6 C5         -1.0639   -1.6810    2.9080 C.ar      1 <0>        -0.1748
      7 C6         -0.6857   -2.5757    1.9313 C.ar      1 <0>        -0.0230
      8 C7         -0.0469   -2.1171    0.7757 C.ar      1 <0>        -0.1622
      9 C8          0.3556   -3.0691   -0.2774 C.2       1 <0>         0.5074
     10 O2          0.8564   -2.6600   -1.3085 O.2       1 <0>        -0.4590
     11 C9          0.1522   -4.5079   -0.0817 C.2       1 <0>        -0.5026
     12 C10         1.1162   -5.4493    0.0479 C.2       1 <0>         0.2720
     13 C11         0.4825   -6.7716    0.2277 C.2       1 <0>         0.5018
     14 O3          1.0824   -7.8186    0.3713 O.2       1 <0>        -0.4959
     15 N1         -0.8568   -6.6456    0.2088 N.am      1 <0>        -0.5517
     16 C12        -1.1737   -5.2249    0.0207 C.3       1 <0>         0.2623
     17 H1         -1.7385   -4.8485    0.8736 H         1 <0>         0.0774
     18 C13        -1.9639   -5.0370   -1.2487 C.ar      1 <0>        -0.0966
     19 C14        -1.8704   -5.9685   -2.2656 C.ar      1 <0>        -0.0658
     20 C15        -2.5950   -5.7964   -3.4300 C.ar      1 <0>        -0.1274
     21 C16        -3.4141   -4.6925   -3.5790 C.ar      1 <0>        -0.1050
     22 C17        -3.5096   -3.7602   -2.5636 C.ar      1 <0>        -0.1589
     23 C18        -2.7881   -3.9343   -1.3945 C.ar      1 <0>         0.1003
     24 F1         -2.8843   -3.0259   -0.3992 F         1 <0>        -0.1372
     25 C19        -1.7828   -7.6834    0.3494 C.ar      1 <0>         0.1621
     26 C20        -3.1455   -7.4101    0.3040 C.ar      1 <0>        -0.1637
     27 C21        -4.0656   -8.4323    0.4424 C.ar      1 <0>        -0.1161
     28 C22        -3.6386   -9.7316    0.6261 C.ar      1 <0>        -0.1174
     29 C23        -2.2718  -10.0176    0.6728 C.ar      1 <0>        -0.1108
     30 C24        -1.3425   -8.9855    0.5281 C.ar      1 <0>        -0.1202
     31 C25        -1.8120  -11.4058    0.8696 C.2       1 <0>         0.5223
     32 O4         -2.6278  -12.3085    0.9921 O.co2     1 <0>        -0.6975
     33 O5         -0.6151  -11.6536    0.9101 O.co2     1 <0>        -0.6803
     34 O6          2.4487   -5.2162    0.0177 O.3       1 <0>        -0.6523
     35 H2          1.5725    1.3476   -1.5112 H         1 <0>         0.0958
     36 H3          0.1157    1.6451   -0.5328 H         1 <0>         0.0496
     37 H4          1.6938    1.4325    0.2626 H         1 <0>         0.0502
     38 H5          0.0205    1.1951    1.5060 H         1 <0>         0.1239
     39 H6         -1.1092    0.3667    3.5242 H         1 <0>         0.1191
     40 H7         -1.5607   -2.0360    3.7988 H         1 <0>         0.1231
     41 H8         -0.8861   -3.6296    2.0564 H         1 <0>         0.1385
     42 H9         -1.2306   -6.8309   -2.1505 H         1 <0>         0.1278
     43 H10        -2.5210   -6.5245   -4.2242 H         1 <0>         0.1237
     44 H11        -3.9793   -4.5587   -4.4896 H         1 <0>         0.1236
     45 H12        -4.1492   -2.8979   -2.6804 H         1 <0>         0.1267
     46 H13        -3.4863   -6.3954    0.1605 H         1 <0>         0.1118
     47 H14        -5.1226   -8.2132    0.4070 H         1 <0>         0.1119
     48 H15        -4.3609  -10.5272    0.7342 H         1 <0>         0.1209
     49 H16        -0.2846   -9.2004    0.5595 H         1 <0>         0.1579
@<TRIPOS>BOND
     1    1    2 1
     2    1   35 1
     3    1   36 1
     4    1   37 1
     5    2    3 1
     6    3    8 ar
     7    3    4 ar
     8    4    5 ar
     9    4   38 1
    10    5    6 ar
    11    5   39 1
    12    6    7 ar
    13    6   40 1
    14    7    8 ar
    15    7   41 1
    16    8    9 1
    17    9   10 2
    18    9   11 1
    19   11   16 1
    20   11   12 2
    21   12   13 1
    22   12   34 1
    23   13   14 2
    24   13   15 am
    25   15   16 1
    26   15   25 1
    27   16   17 1
    28   16   18 1
    29   18   23 ar
    30   18   19 ar
    31   19   20 ar
    32   19   42 1
    33   20   21 ar
    34   20   43 1
    35   21   22 ar
    36   21   44 1
    37   22   23 ar
    38   22   45 1
    39   23   24 1
    40   25   30 ar
    41   25   26 ar
    42   26   27 ar
    43   26   46 1
    44   27   28 ar
    45   27   47 1
    46   28   29 ar
    47   28   48 1
    48   29   30 ar
    49   29   31 1
    50   30   49 1
    51   31   32 2
    52   31   33 1
@<TRIPOS>MOLECULE
ZINC13265496
   36    37     0     0     0
SMALL
USER_CHARGES

@<TRIPOS>ATOM
      1 C1         -0.0173    1.4248    0.0099 C.3       1 <0>         0.0256
      2 O1          0.0021   -0.0041    0.0020 O.3       1 <0>        -0.3169
      3 C2          0.6062   -0.6075   -1.0565 C.ar      1 <0>         0.1665
      4 C3          1.1726    0.1614   -2.0618 C.ar      1 <0>        -0.3282
      5 C4          1.7889   -0.4548   -3.1405 C.ar      1 <0>         0.3126
      6 C5          1.8372   -1.8453   -3.2113 C.ar      1 <0>         0.0499
      7 C6          1.2703   -2.6089   -2.2051 C.ar      1 <0>        -0.1332
      8 C7          0.6605   -1.9922   -1.1269 C.ar      1 <0>        -0.1414
      9 Cl1        -0.0431   -2.9524    0.1367 Cl        1 <0>        -0.1071
     10 O2          2.4410   -2.4526   -4.2690 O.3       1 <0>        -0.2843
     11 C8          2.4534   -3.8815   -4.2762 C.3       1 <0>         0.0279
     12 N1          2.3611    0.3194   -4.1571 N.2       1 <0>        -1.0465
     13 S1          2.3024    1.9722   -4.0719 S.o2      1 <0>         2.6030
     14 O3          0.9338    2.3364   -4.1876 O.2       1 <0>        -1.0262
     15 O4          3.0998    2.3500   -2.9580 O.2       1 <0>        -1.0144
     16 C9          3.1128    2.5969   -5.5063 C.ar      1 <0>        -0.6144
     17 C10         2.3979    3.3119   -6.4438 C.ar      1 <0>         0.0091
     18 C11         3.0422    3.8066   -7.5808 C.ar      1 <0>        -0.1471
     19 C12         4.4086    3.5726   -7.7596 C.ar      1 <0>        -0.0447
     20 C13         5.1113    2.8562   -6.8146 C.ar      1 <0>        -0.1362
     21 C14         4.4676    2.3735   -5.6869 C.ar      1 <0>         0.0002
     22 Br1         5.4416    1.3989   -4.3918 Br        1 <0>        -0.0367
     23 C15         2.2838    4.5718   -8.5879 C.2       1 <0>         0.5254
     24 O5          1.0883    4.7747   -8.4290 O.co2     1 <0>        -0.6798
     25 O6          2.8504    5.0035   -9.5821 O.co2     1 <0>        -0.6911
     26 H1          1.0053    1.8021    0.0021 H         1 <0>         0.0554
     27 H2         -0.5445    1.7859   -0.8732 H         1 <0>         0.0561
     28 H3         -0.5275    1.7763    0.9067 H         1 <0>         0.0902
     29 H4          1.1336    1.2392   -2.0049 H         1 <0>         0.1204
     30 H5          1.3074   -3.6869   -2.2600 H         1 <0>         0.1253
     31 H6          1.4290   -4.2538   -4.2703 H         1 <0>         0.0412
     32 H7          2.9637   -4.2359   -5.1718 H         1 <0>         0.0849
     33 H8          2.9771   -4.2447   -3.3919 H         1 <0>         0.0405
     34 H9          1.3423    3.4889   -6.2998 H         1 <0>         0.1495
     35 H10         4.9125    3.9518   -8.6363 H         1 <0>         0.1366
     36 H11         6.1671    2.6746   -6.9515 H         1 <0>         0.1279
@<TRIPOS>BOND
     1    1    2 1
     2    1   26 1
     3    1   27 1
     4    1   28 1
     5    2    3 1
     6    3    8 ar
     7    3    4 ar
     8    4    5 ar
     9    4   29 1
    10    5    6 ar
    11    5   12 1
    12    6    7 ar
    13    6   10 1
    14    7    8 ar
    15    7   30 1
    16    8    9 1
    17   10   11 1
    18   11   31 1
    19   11   32 1
    20   11   33 1
    21   12   13 1
    22   13   14 2
    23   13   15 2
    24   13   16 1
    25   16   21 ar
    26   16   17 ar
    27   17   18 ar
    28   17   34 1
    29   18   19 ar
    30   18   23 1
    31   19   20 ar
    32   19   35 1
    33   20   21 ar
    34   20   36 1
    35   21   22 1
    36   23   24 2
    37   23   25 1
@<TRIPOS>MOLECULE
ZINC16917722
   53    55     0     0     0
SMALL
USER_CHARGES

@<TRIPOS>ATOM
      1 C1          1.9934    0.8716    1.5007 C.3       1 <0>        -0.1458
      2 C2          1.5460   -0.5390    1.1119 C.3       1 <0>         0.0524
      3 O1          1.9601   -0.8179   -0.2271 O.3       1 <0>        -0.3000
      4 C3          1.6390   -2.0397   -0.7307 C.ar      1 <0>         0.0822
      5 C4          0.9385   -2.9429    0.0437 C.ar      1 <0>        -0.0923
      6 C5          0.6097   -4.2001   -0.4785 C.ar      1 <0>        -0.0814
      7 C6          0.9936   -4.5336   -1.7833 C.ar      1 <0>        -0.0915
      8 C7          1.6922   -3.6259   -2.5482 C.ar      1 <0>        -0.2014
      9 C8          2.0126   -2.3775   -2.0311 C.ar      1 <0>         0.1271
     10 O2          2.6965   -1.4845   -2.7927 O.3       1 <0>        -0.2678
     11 C9          2.9466   -1.8483   -4.1518 C.3       1 <0>         0.0105
     12 H1          2.1009   -2.4181   -4.5369 H         1 <0>         0.0660
     13 C10         4.2135   -2.7027   -4.2262 C.3       1 <0>        -0.1544
     14 C11         3.1315   -0.6025   -4.9793 C.2       1 <0>         0.5063
     15 O3          3.1471    0.4909   -4.4401 O.co2     1 <0>        -0.6689
     16 O4          3.2655   -0.6880   -6.1882 O.co2     1 <0>        -0.6946
     17 C12        -0.1346   -5.1656    0.3397 C.2       1 <0>         0.0021
     18 C13        -1.1467   -4.7408    1.1380 C.2       1 <0>        -0.1992
     19 C14        -1.7966   -3.4118    1.2207 C.2       1 <0>         0.5244
     20 O5         -1.4512   -2.4809    0.5106 O.2       1 <0>        -0.5181
     21 N1         -2.7659   -3.2905    2.1005 N.2       1 <0>        -0.7139
     22 C15        -3.1504   -4.2918    2.8761 C.2       1 <0>         0.4547
     23 S1         -2.0763   -5.6299    2.3806 S.3       1 <0>        -0.1545
     24 N2         -4.1380   -4.3009    3.8270 N.2       1 <0>        -0.5813
     25 C16        -4.9579   -3.1810    3.9939 C.ar      1 <0>         0.1706
     26 C17        -5.2971   -2.3970    2.8983 C.ar      1 <0>        -0.1473
     27 C18        -6.1076   -1.2918    3.0666 C.ar      1 <0>        -0.1093
     28 C19        -6.5816   -0.9650    4.3242 C.ar      1 <0>        -0.1680
     29 C20        -6.2455   -1.7428    5.4168 C.ar      1 <0>        -0.0862
     30 C21        -5.4399   -2.8530    5.2545 C.ar      1 <0>        -0.1141
     31 C22        -5.0796   -3.7042    6.4448 C.3       1 <0>        -0.0920
     32 C23        -6.7635   -1.3823    6.7853 C.3       1 <0>        -0.1035
     33 H2          3.0793    0.9395    1.4345 H         1 <0>         0.0613
     34 H3          1.5421    1.5958    0.8225 H         1 <0>         0.0661
     35 H4          1.6776    1.0843    2.5220 H         1 <0>         0.0698
     36 H5          1.9974   -1.2631    1.7901 H         1 <0>         0.0495
     37 H6          0.4602   -0.6069    1.1781 H         1 <0>         0.0685
     38 H7          0.6452   -2.6808    1.0495 H         1 <0>         0.1317
     39 H8          0.7422   -5.5023   -2.1895 H         1 <0>         0.1203
     40 H9          1.9877   -3.8841   -3.5543 H         1 <0>         0.1338
     41 H10         4.0798   -3.6038   -3.6276 H         1 <0>         0.0489
     42 H11         4.4043   -2.9802   -5.2628 H         1 <0>         0.0692
     43 H12         5.0592   -2.1329   -3.8410 H         1 <0>         0.0572
     44 H13         0.1232   -6.2138    0.3062 H         1 <0>         0.1279
     45 H14        -4.9271   -2.6515    1.9161 H         1 <0>         0.1259
     46 H15        -6.3714   -0.6817    2.2154 H         1 <0>         0.1061
     47 H16        -7.2153   -0.1000    4.4531 H         1 <0>         0.1043
     48 H17        -4.1628   -3.3264    6.8974 H         1 <0>         0.0522
     49 H18        -5.8875   -3.6674    7.1756 H         1 <0>         0.0480
     50 H19        -4.9280   -4.7343    6.1223 H         1 <0>         0.0720
     51 H20        -7.7186   -1.8794    6.9548 H         1 <0>         0.0593
     52 H21        -6.0472   -1.7041    7.5413 H         1 <0>         0.0614
     53 H22        -6.8993   -0.3027    6.8496 H         1 <0>         0.0560
@<TRIPOS>BOND
     1    1    2 1
     2    1   33 1
     3    1   34 1
     4    1   35 1
     5    2    3 1
     6    2   36 1
     7    2   37 1
     8    3    4 1
     9    4    9 ar
    10    4    5 ar
    11    5    6 ar
    12    5   38 1
    13    6    7 ar
    14    6   17 1
    15    7    8 ar
    16    7   39 1
    17    8    9 ar
    18    8   40 1
    19    9   10 1
    20   10   11 1
    21   11   12 1
    22   11   13 1
    23   11   14 1
    24   13   41 1
    25   13   42 1
    26   13   43 1
    27   14   15 2
    28   14   16 1
    29   17   18 2
    30   17   44 1
    31   18   23 1
    32   18   19 1
    33   19   20 2
    34   19   21 1
    35   21   22 2
    36   22   23 1
    37   22   24 1
    38   24   25 1
    39   25   30 ar
    40   25   26 ar
    41   26   27 ar
    42   26   45 1
    43   27   28 ar
    44   27   46 1
    45   28   29 ar
    46   28   47 1
    47   29   30 ar
    48   29   32 1
    49   30   31 1
    50   31   48 1
    51   31   49 1
    52   31   50 1
    53   32   51 1
    54   32   52 1
    55   32   53 1
@<TRIPOS>MOLECULE
ZINC13027908
   51    52     0     0     0
SMALL
USER_CHARGES
2-[[5-[(E)-3-hydroxy-3-oxo-prop-1-enyl]-2,3-dimethoxy-phenyl]sulfonylamino]-4,5-dimethoxy-benzoic acid
@<TRIPOS>ATOM
      1 C1         -2.0808    1.9999   -6.4211 C.3       1 <0>         0.0220
      2 O1         -1.9088    1.3670   -5.1515 O.3       1 <0>        -0.3032
      3 C2         -1.5614    2.1645   -4.1061 C.ar      1 <0>         0.0899
      4 C3         -1.3909    3.5210   -4.2996 C.ar      1 <0>        -0.1433
      5 C4         -1.0333    4.3386   -3.2211 C.ar      1 <0>        -0.0293
      6 C5         -0.8505    3.7763   -1.9524 C.ar      1 <0>        -0.0368
      7 C6         -1.0226    2.4222   -1.7685 C.ar      1 <0>        -0.6583
      8 C7         -1.3723    1.6111   -2.8401 C.ar      1 <0>         0.1705
      9 O2         -1.5351    0.2757   -2.6536 O.3       1 <0>        -0.3074
     10 C8         -2.8679   -0.1910   -2.4348 C.3       1 <0>         0.0353
     11 S1         -0.7915    1.7161   -0.1708 S.o2      1 <0>         2.7005
     12 O3         -1.9381    0.9184    0.0904 O.2       1 <0>        -0.9544
     13 O4         -0.3887    2.7750    0.6869 O.2       1 <0>        -0.9640
     14 N1          0.4938    0.6772   -0.2759 N.pl3     1 <0>        -1.0143
     15 C9          1.7452    1.1550   -0.6486 C.ar      1 <0>         0.1937
     16 C10         2.1561    2.4175   -0.2464 C.ar      1 <0>        -0.2496
     17 C11         3.4047    2.8908   -0.6136 C.ar      1 <0>         0.1311
     18 C12         4.2520    2.1067   -1.3992 C.ar      1 <0>         0.0607
     19 C13         3.8537    0.8529   -1.8098 C.ar      1 <0>        -0.1070
     20 C14         2.5950    0.3633   -1.4386 C.ar      1 <0>        -0.1311
     21 C15         2.1649   -0.9735   -1.8743 C.2       1 <0>         0.5006
     22 O5          1.0718   -1.3956   -1.5509 O.co2     1 <0>        -0.6150
     23 O6          5.4750    2.5819   -1.7601 O.3       1 <0>        -0.3121
     24 C16         6.2915    1.7279   -2.5639 C.3       1 <0>         0.0276
     25 O7          3.8045    4.1249   -0.2127 O.3       1 <0>        -0.3054
     26 C17         2.8895    4.8746    0.5891 C.3       1 <0>         0.0230
     27 C18        -0.8498    5.7830   -3.4205 C.2       1 <0>        -0.1053
     28 C19        -1.0268    6.3236   -4.6459 C.2       1 <0>        -0.1446
     29 C20        -0.8498    7.7171   -4.8382 C.2       1 <0>         0.4731
     30 O8         -0.5386    8.4259   -3.8998 O.co2     1 <0>        -0.6350
     31 H1         -1.1482    2.4807   -6.7167 H         1 <0>         0.0581
     32 H2         -2.3561    1.2527   -7.1653 H         1 <0>         0.1001
     33 H3         -2.8691    2.7493   -6.3497 H         1 <0>         0.0553
     34 H4         -1.5328    3.9499   -5.2806 H         1 <0>         0.1441
     35 H5         -0.5749    4.4041   -1.1179 H         1 <0>         0.1492
     36 H6         -3.3199    0.3706   -1.6173 H         1 <0>         0.0631
     37 H7         -3.4559   -0.0495   -3.3416 H         1 <0>         0.0414
     38 H8         -2.8444   -1.2502   -2.1786 H         1 <0>         0.0965
     39 H9          0.3728   -0.2653   -0.0812 H         1 <0>         0.4409
     40 H10         1.5031    3.0303    0.3573 H         1 <0>         0.1697
     41 H11         4.5115    0.2484   -2.4168 H         1 <0>         0.1474
     42 H12         5.7759    1.5065   -3.4984 H         1 <0>         0.0542
     43 H13         7.2365    2.2265   -2.7797 H         1 <0>         0.0916
     44 H14         6.4850    0.7994   -2.0268 H         1 <0>         0.0529
     45 H15         1.9649    5.0323    0.0339 H         1 <0>         0.0598
     46 H16         2.6740    4.3246    1.5051 H         1 <0>         0.0557
     47 H17         3.3318    5.8389    0.8397 H         1 <0>         0.0957
     48 H18        -0.5736    6.4123   -2.5874 H         1 <0>         0.1357
     49 H19        -1.3031    5.6943   -5.4790 H         1 <0>         0.1033
     50 O9          2.9828   -1.7309   -2.6323 O.co2     1 <0>        -0.7581
     51 O10        -1.0265    8.2570   -6.0621 O.co2     1 <0>        -0.7685
@<TRIPOS>BOND
     1    1    2 1
     2    1   31 1
     3    1   32 1
     4    1   33 1
     5    2    3 1
     6    3    8 ar
     7    3    4 ar
     8    4    5 ar
     9    4   34 1
    10    5    6 ar
    11    5   27 1
    12    6    7 ar
    13    6   35 1
    14    7    8 ar
    15    7   11 1
    16    8    9 1
    17    9   10 1
    18   10   36 1
    19   10   37 1
    20   10   38 1
    21   11   12 2
    22   11   13 2
    23   11   14 1
    24   14   15 1
    25   14   39 1
    26   15   20 ar
    27   15   16 ar
    28   16   17 ar
    29   16   40 1
    30   17   18 ar
    31   17   25 1
    32   18   19 ar
    33   18   23 1
    34   19   20 ar
    35   19   41 1
    36   20   21 1
    37   21   22 2
    38   21   50 1
    39   23   24 1
    40   24   42 1
    41   24   43 1
    42   24   44 1
    43   25   26 1
    44   26   45 1
    45   26   46 1
    46   26   47 1
    47   27   28 2
    48   27   48 1
    49   28   29 1
    50   28   49 1
    51   29   30 2
    52   29   51 1
@<TRIPOS>MOLECULE
ZINC13274311
   45    47     0     0     0
SMALL
USER_CHARGES
2-[3-[4-(carboxymethylcarbamoyl)-2-nitro-phenyl]sulfanyl-5-(4-chlorophenyl)-1,2,4-triazol-4-yl]acetic acid
@<TRIPOS>ATOM
      1 C1         -6.3562    9.6518    0.5584 C.ar      1 <0>        -0.0970
      2 C2         -6.7244   10.9656    0.5504 C.ar      1 <0>        -0.1013
      3 C3         -5.7885   11.9534    0.2637 C.ar      1 <0>        -0.0322
      4 C4         -4.4682   11.6152   -0.0126 C.ar      1 <0>        -0.1107
      5 C5         -4.0777   10.3080   -0.0047 C.ar      1 <0>        -0.0680
      6 C6         -5.0185    9.2981    0.2853 C.ar      1 <0>        -0.0009
      7 C7         -4.6243    7.9388    0.2963 C.2       1 <0>         0.1933
      8 N1         -3.3554    7.4703    0.4422 N.2       1 <0>        -0.2569
      9 N2         -3.3673    6.1843    0.4100 N.2       1 <0>        -0.2811
     10 C8         -4.6444    5.7492    0.2320 C.2       1 <0>         0.1137
     11 N3         -5.4485    6.8575    0.1625 N.pl3     1 <0>        -0.3835
     12 C9         -6.9020    6.8782   -0.0200 C.3       1 <0>         0.0356
     13 C10        -7.5782    6.7885    1.3238 C.2       1 <0>         0.4551
     14 O1         -6.9142    6.7149    2.3305 O.co2     1 <0>        -0.6022
     15 S1         -5.1539    4.1184    0.1226 S.3       1 <0>         0.2035
     16 C11        -3.6264    3.2988    0.4383 C.ar      1 <0>        -0.0725
     17 C12        -3.3805    2.7389    1.6951 C.ar      1 <0>        -0.0557
     18 C13        -2.1997    2.0984    1.9411 C.ar      1 <0>        -0.0428
     19 C14        -1.2279    2.0096    0.9400 C.ar      1 <0>        -0.0953
     20 C15        -1.4686    2.5674   -0.3191 C.ar      1 <0>        -0.0042
     21 C16        -2.6610    3.2082   -0.5683 C.ar      1 <0>         0.0448
     22 N4         -2.9208    3.8005   -1.9013 N.pl3     1 <0>        -0.0168
     23 O2         -2.0104    3.7140   -2.8491 O.2       1 <0>        -0.1808
     24 O3         -4.0621    4.4133   -2.1385 O.3       1 <0>        -0.1378
     25 C17         0.0519    1.3207    1.2110 C.2       1 <0>         0.5500
     26 O4          0.8948    1.2392    0.3390 O.2       1 <0>        -0.5388
     27 N5          0.2862    0.7878    2.4266 N.am      1 <0>        -0.6926
     28 C18         1.5567    0.1104    2.6969 C.3       1 <0>         0.0751
     29 C19         1.5661   -0.3912    4.1179 C.2       1 <0>         0.4604
     30 O5          0.6097   -0.2023    4.8316 O.co2     1 <0>        -0.6335
     31 Cl1        -6.2720   13.6207    0.2502 Cl        1 <0>        -0.0793
     32 H1         -7.0855    8.8859    0.7772 H         1 <0>         0.1491
     33 H2         -7.7472   11.2390    0.7636 H         1 <0>         0.1381
     34 H3         -3.7495   12.3902   -0.2347 H         1 <0>         0.1363
     35 H4         -3.0519   10.0475   -0.2199 H         1 <0>         0.1435
     36 H5         -7.1932    7.8061   -0.5121 H         1 <0>         0.1134
     37 H6         -7.2030    6.0305   -0.6355 H         1 <0>         0.1078
     38 H7         -4.1276    2.8090    2.4718 H         1 <0>         0.1674
     39 H8         -2.0146    1.6633    2.9121 H         1 <0>         0.1594
     40 H9         -0.7204    2.4960   -1.0946 H         1 <0>         0.1712
     41 H10        -0.3864    0.8528    3.1224 H         1 <0>         0.4086
     42 H11         1.6724   -0.7311    2.0138 H         1 <0>         0.0779
     43 H12         2.3796    0.8107    2.5534 H         1 <0>         0.0782
     44 O6         -8.9182    6.7904    1.4022 O.co2     1 <0>        -0.7421
     45 O7          2.6371   -1.0479    4.5908 O.co2     1 <0>        -0.7563
@<TRIPOS>BOND
     1    1    6 ar
     2    1    2 ar
     3    1   32 1
     4    2    3 ar
     5    2   33 1
     6    3    4 ar
     7    3   31 1
     8    4    5 ar
     9    4   34 1
    10    5    6 ar
    11    5   35 1
    12    6    7 1
    13    7   11 1
    14    7    8 2
    15    8    9 1
    16    9   10 2
    17   10   11 1
    18   10   15 1
    19   11   12 1
    20   12   13 1
    21   12   36 1
    22   12   37 1
    23   13   14 2
    24   13   44 1
    25   15   16 1
    26   16   21 ar
    27   16   17 ar
    28   17   18 ar
    29   17   38 1
    30   18   19 ar
    31   18   39 1
    32   19   20 ar
    33   19   25 1
    34   20   21 ar
    35   20   40 1
    36   21   22 1
    37   22   23 2
    38   22   24 1
    39   25   26 2
    40   25   27 am
    41   27   28 1
    42   27   41 1
    43   28   29 1
    44   28   42 1
    45   28   43 1
    46   29   30 2
    47   29   45 1
@<TRIPOS>MOLECULE
ZINC26771812
   71    74     0     0     0
SMALL
USER_CHARGES
(2S)-2-[[2-[[(8R,9R,10S,13R,14S,17S)-17-hydroxy-10,13-dimethyl-1,2,6,7,8,9,11,12,14,15,16,17-dodecahydrocyclopenta[a]phenanthren-3-ylidene]amino]oxyacetyl]amino]pentanedioic acid
@<TRIPOS>ATOM
      1 C1          1.7741    2.2112   -1.4838 C.3       1 <0>        -0.1551
      2 C2          1.4299    1.9876   -0.0009 C.3       1 <0>        -0.0330
      3 C3          1.8006    3.2598    0.6915 C.3       1 <0>        -0.0943
      4 C4          0.9770    3.6247    1.9101 C.3       1 <0>        -0.1034
      5 C5         -0.5054    3.3504    1.7417 C.3       1 <0>        -0.0622
      6 H1         -0.9442    3.3275    2.7501 H         1 <0>         0.0493
      7 C6         -0.7915    1.9698    1.2472 C.3       1 <0>        -0.0684
      8 H2         -0.3985    1.3690    2.0806 H         1 <0>         0.0615
      9 C7         -0.0190    1.5468    0.0105 C.3       1 <0>        -0.0654
     10 H3         -0.5103    2.0307   -0.8465 H         1 <0>         0.0781
     11 C8          0.0021   -0.0041    0.0020 C.3       1 <0>        -0.1123
     12 C9          1.4777   -0.4230   -0.1233 C.3       1 <0>        -0.1512
     13 C10         2.2786    0.7810    0.4226 C.3       1 <0>         0.1235
     14 H4          3.3332    0.8270    0.1134 H         1 <0>         0.0527
     15 O1          2.3852    0.7111    1.8444 O.3       1 <0>        -0.5929
     16 C11        -2.2699    1.6540    1.0991 C.3       1 <0>        -0.1076
     17 C12        -2.9833    2.7101    0.2643 C.3       1 <0>        -0.0852
     18 C13        -2.7022    4.0813    0.8487 C.2       1 <0>        -0.0625
     19 C14        -3.7383    4.8603    1.1285 C.2       1 <0>        -0.1138
     20 C15        -3.5415    6.2366    1.6120 C.2       1 <0>         0.1572
     21 N1         -4.5288    6.9348    2.0823 N.2       1 <0>        -0.3375
     22 O2         -4.3068    8.2563    2.5397 O.3       1 <0>        -0.2025
     23 C16        -5.4810    8.9065    3.0304 C.3       1 <0>         0.0582
     24 C17        -5.1301   10.2988    3.4881 C.2       1 <0>         0.5191
     25 O3         -3.9872   10.6953    3.4025 O.2       1 <0>        -0.5441
     26 N2         -6.0865   11.1034    3.9925 N.am      1 <0>        -0.6966
     27 C18        -5.7454   12.4569    4.4374 C.3       1 <0>         0.1072
     28 H5         -4.9534   12.8344    3.7739 H         1 <0>         0.0837
     29 C19        -6.9894   13.3449    4.3687 C.3       1 <0>        -0.0842
     30 C20        -7.4279   13.4966    2.9108 C.3       1 <0>        -0.1526
     31 C21        -8.6532   14.3713    2.8431 C.2       1 <0>         0.4612
     32 O4         -9.1271   14.8267    3.8570 O.co2     1 <0>        -0.6389
     33 O5         -9.2181   14.6445    1.6565 O.co2     1 <0>        -0.7913
     34 C22        -5.2416   12.4070    5.8568 C.2       1 <0>         0.4643
     35 O6         -5.1743   11.3494    6.4372 O.co2     1 <0>        -0.6407
     36 O7         -4.8675   13.5375    6.4763 O.co2     1 <0>        -0.7698
     37 C23        -2.1452    6.8155    1.5161 C.3       1 <0>        -0.1156
     38 C24        -1.1473    5.7399    1.9324 C.3       1 <0>        -0.1044
     39 C25        -1.2759    4.4789    1.0893 C.3       1 <0>        -0.0120
     40 C26        -0.6785    4.7925   -0.2784 C.3       1 <0>        -0.1491
     41 H6          2.8213    2.5362   -1.5722 H         1 <0>         0.0530
     42 H7          1.1134    2.9855   -1.9008 H         1 <0>         0.0625
     43 H8          1.6337    1.2717   -2.0385 H         1 <0>         0.0548
     44 H9          2.8429    3.1985    1.0378 H         1 <0>         0.0601
     45 H10         1.6956    4.1021   -0.0081 H         1 <0>         0.0647
     46 H11         1.3240    3.0409    2.7754 H         1 <0>         0.0643
     47 H12         1.0916    4.6980    2.1222 H         1 <0>         0.0663
     48 H13        -0.4347   -0.3819    0.9382 H         1 <0>         0.0690
     49 H14        -0.5845   -0.3741   -0.8518 H         1 <0>         0.0598
     50 H15         1.6526   -1.3319    0.4712 H         1 <0>         0.0658
     51 H16         1.7134   -0.6242   -1.1787 H         1 <0>         0.0691
     52 H17         2.9627   -0.0991    2.3135 H         1 <0>         0.3968
     53 H18        -2.3887    0.6790    0.6039 H         1 <0>         0.0674
     54 H19        -2.7390    1.6198    2.0935 H         1 <0>         0.0631
     55 H20        -2.6162    2.6680   -0.7718 H         1 <0>         0.0759
     56 H21        -4.0663    2.5180    0.2776 H         1 <0>         0.0729
     57 H22        -4.7626    4.4803    1.0002 H         1 <0>         0.1289
     58 H23        -6.2315    8.9625    2.2281 H         1 <0>         0.0824
     59 H24        -5.8904    8.3347    3.8762 H         1 <0>         0.0844
     60 H25        -7.1232   10.7438    4.0701 H         1 <0>         0.4108
     61 H26        -7.8016   12.8837    4.9498 H         1 <0>         0.0593
     62 H27        -6.7564   14.3354    4.7865 H         1 <0>         0.0847
     63 H28        -6.6157   13.9577    2.3297 H         1 <0>         0.0598
     64 H29        -7.6610   12.5061    2.4930 H         1 <0>         0.0584
     65 H30        -1.9489    7.1298    0.4804 H         1 <0>         0.0859
     66 H31        -2.0619    7.6847    2.1850 H         1 <0>         0.0947
     67 H32        -0.1235    6.1252    1.8169 H         1 <0>         0.0752
     68 H33        -1.3198    5.4669    2.9839 H         1 <0>         0.0646
     69 H34        -1.2431    5.6127   -0.7458 H         1 <0>         0.0545
     70 H35        -0.7345    3.8984   -0.9167 H         1 <0>         0.0573
     71 H36         0.3730    5.0926   -0.1591 H         1 <0>         0.0641
@<TRIPOS>BOND
     1    1    2 1
     2    1   41 1
     3    1   42 1
     4    1   43 1
     5    2    9 1
     6    2   13 1
     7    2    3 1
     8    3    4 1
     9    3   44 1
    10    3   45 1
    11    4    5 1
    12    4   46 1
    13    4   47 1
    14    5    6 1
    15    5   39 1
    16    5    7 1
    17    7    8 1
    18    7    9 1
    19    7   16 1
    20    9   10 1
    21    9   11 1
    22   11   12 1
    23   11   48 1
    24   11   49 1
    25   12   13 1
    26   12   50 1
    27   12   51 1
    28   13   14 1
    29   13   15 1
    30   15   52 1
    31   16   17 1
    32   16   53 1
    33   16   54 1
    34   17   18 1
    35   17   55 1
    36   17   56 1
    37   18   39 1
    38   18   19 2
    39   19   20 1
    40   19   57 1
    41   20   21 2
    42   20   37 1
    43   21   22 1
    44   22   23 1
    45   23   24 1
    46   23   58 1
    47   23   59 1
    48   24   25 2
    49   24   26 am
    50   26   27 1
    51   26   60 1
    52   27   28 1
    53   27   29 1
    54   27   34 1
    55   29   30 1
    56   29   61 1
    57   29   62 1
    58   30   31 1
    59   30   63 1
    60   30   64 1
    61   31   32 2
    62   31   33 1
    63   34   35 2
    64   34   36 1
    65   37   38 1
    66   37   65 1
    67   37   66 1
    68   38   39 1
    69   38   67 1
    70   38   68 1
    71   39   40 1
    72   40   69 1
    73   40   70 1
    74   40   71 1
@<TRIPOS>MOLECULE
ZINC39703819
   50    52     0     0     0
SMALL
USER_CHARGES

@<TRIPOS>ATOM
      1 C1         -0.0187    1.5258    0.0104 C.3       1 <0>        -0.1527
      2 C2          0.0021   -0.0041    0.0020 C.3       1 <0>         0.0573
      3 O1         -1.3386   -0.4987    0.0122 O.3       1 <0>        -0.3537
      4 C3         -1.4964   -1.8317    0.0065 C.2       1 <0>         0.4653
      5 O2         -0.5283   -2.5546   -0.0066 O.2       1 <0>        -0.4804
      6 C4         -2.8809   -2.4266    0.0165 C.3       1 <0>        -0.0418
      7 H1         -3.4070   -2.0885    0.9093 H         1 <0>         0.1404
      8 C5         -3.6477   -1.9426   -1.2352 C.3       1 <0>         0.1759
      9 H2         -4.2823   -1.0857   -1.0094 H         1 <0>         0.1411
     10 S1         -4.6446   -3.4569   -1.5534 S.3       1 <0>        -0.0387
     11 C6         -3.6154   -4.6304   -0.6916 C.2       1 <0>        -0.1219
     12 C7         -2.7704   -3.9391    0.0492 C.2       1 <0>        -0.1786
     13 C8         -1.8515   -4.9211    0.7860 C.3       1 <0>        -0.0520
     14 C9         -2.5741   -6.2807    0.7267 C.3       1 <0>        -0.1184
     15 C10        -3.4162   -6.1209   -0.5509 C.3       1 <0>        -0.0486
     16 N1         -2.7369   -1.6534   -2.3456 N.am      1 <0>        -0.7282
     17 C11        -3.0295   -2.0873   -3.5877 C.2       1 <0>         0.5310
     18 O3         -4.0468   -2.7171   -3.7860 O.2       1 <0>        -0.4734
     19 C12        -2.0926   -1.7898   -4.7299 C.3       1 <0>        -0.1443
     20 S2         -2.7593   -2.5011   -6.2597 S.3       1 <0>         0.0314
     21 C13        -1.5665   -2.0732   -7.4839 C.ar      1 <0>         0.2489
     22 N2         -1.7541   -2.4501   -8.7430 N.ar      1 <0>        -0.5763
     23 C14        -0.8513   -2.1247   -9.6618 C.ar      1 <0>         0.4211
     24 O4         -1.0167   -2.4954  -10.9548 O.3       1 <0>        -0.6599
     25 C15         0.2703   -1.3931   -9.2692 C.ar      1 <0>        -0.0398
     26 N3          0.4026   -1.0466   -8.0026 N.ar      1 <0>        -0.2064
     27 N4         -0.4930   -1.3730   -7.1378 N.ar      1 <0>        -0.4107
     28 C16         1.3185   -1.0038  -10.2796 C.3       1 <0>        -0.0102
     29 C17         0.9640    0.3563  -10.8840 C.3       1 <0>        -0.1652
     30 C18         2.0122    0.7457  -11.8943 C.2       1 <0>         0.4978
     31 O5          2.9553    0.0040  -12.1109 O.co2     1 <0>        -0.7015
     32 O6          1.9170    1.8023  -12.4951 O.co2     1 <0>        -0.7191
     33 H3          1.0039    1.9031    0.0027 H         1 <0>         0.0812
     34 H4         -0.5459    1.8868   -0.8726 H         1 <0>         0.0711
     35 H5         -0.5289    1.8773    0.9072 H         1 <0>         0.0646
     36 H6          0.5123   -0.3556   -0.8948 H         1 <0>         0.0738
     37 H7          0.5293   -0.3651    0.8851 H         1 <0>         0.0677
     38 H8         -0.8864   -4.9844    0.2834 H         1 <0>         0.0844
     39 H9         -1.7188   -4.6091    1.8219 H         1 <0>         0.0650
     40 H10        -1.8611   -7.0991    0.6268 H         1 <0>         0.0807
     41 H11        -3.2119   -6.4236    1.5990 H         1 <0>         0.0734
     42 H12        -4.3767   -6.6242   -0.4401 H         1 <0>         0.0787
     43 H13        -2.8762   -6.5154   -1.4115 H         1 <0>         0.0883
     44 H14        -1.9233   -1.1496   -2.1870 H         1 <0>         0.4045
     45 H15        -1.9912   -0.7106   -4.8451 H         1 <0>         0.1192
     46 H16        -1.1158   -2.2263   -4.5218 H         1 <0>         0.1152
     47 H17         2.2901   -0.9414   -9.7895 H         1 <0>         0.0610
     48 H18         1.3576   -1.7535  -11.0698 H         1 <0>         0.0768
     49 H19        -0.0076    0.2940  -11.3740 H         1 <0>         0.0562
     50 H20         0.9249    1.1060  -10.0937 H         1 <0>         0.0495
@<TRIPOS>BOND
     1    1    2 1
     2    1   33 1
     3    1   34 1
     4    1   35 1
     5    2    3 1
     6    2   36 1
     7    2   37 1
     8    3    4 1
     9    4    5 2
    10    4    6 1
    11    6    7 1
    12    6   12 1
    13    6    8 1
    14    8    9 1
    15    8   10 1
    16    8   16 1
    17   10   11 1
    18   11   15 1
    19   11   12 2
    20   12   13 1
    21   13   14 1
    22   13   38 1
    23   13   39 1
    24   14   15 1
    25   14   40 1
    26   14   41 1
    27   15   42 1
    28   15   43 1
    29   16   17 am
    30   16   44 1
    31   17   18 2
    32   17   19 1
    33   19   20 1
    34   19   45 1
    35   19   46 1
    36   20   21 1
    37   21   22 ar
    38   21   27 ar
    39   22   23 ar
    40   23   24 1
    41   23   25 ar
    42   25   26 ar
    43   25   28 1
    44   26   27 ar
    45   28   29 1
    46   28   47 1
    47   28   48 1
    48   29   30 1
    49   29   49 1
    50   29   50 1
    51   30   31 2
    52   30   32 1
@<TRIPOS>MOLECULE
ZINC18141018
   58    60     0     0     0
SMALL
USER_CHARGES

@<TRIPOS>ATOM
      1 C1         -2.0509   -3.3396    0.0162 C.3       1 <0>        -0.1477
      2 C2         -1.3300   -2.2173   -0.7334 C.3       1 <0>        -0.1168
      3 C3          0.1759   -2.4879   -0.7312 C.3       1 <0>        -0.1292
      4 C4          0.8967   -1.3656   -1.4808 C.3       1 <0>         0.1276
      5 N1          2.3386   -1.6246   -1.4787 N.am      1 <0>        -0.5445
      6 C5          2.8960   -2.3486   -2.4860 C.2       1 <0>         0.5580
      7 C6          4.2595   -2.5898   -2.4790 C.2       1 <0>        -0.3980
      8 C7          5.0267   -2.0861   -1.4420 C.2       1 <0>         0.5018
      9 N2          4.4290   -1.3671   -0.4546 N.am      1 <0>        -0.6600
     10 C8          3.1030   -1.1398   -0.4831 C.2       1 <0>         0.7035
     11 O1          2.5873   -0.4909    0.4063 O.2       1 <0>        -0.6161
     12 O2          6.2933   -2.2967   -1.4129 O.2       1 <0>        -0.6592
     13 C9          4.8995   -3.3899   -3.5842 C.3       1 <0>         0.1831
     14 H1          5.9723   -3.4632   -3.4053 H         1 <0>         0.0542
     15 C10         4.2999   -4.7721   -3.6158 C.ar      1 <0>         0.0430
     16 C11         3.0517   -4.9915   -4.1782 C.ar      1 <0>        -0.1115
     17 C12         2.5338   -6.2728   -4.1892 C.ar      1 <0>         0.0511
     18 N3          3.2121   -7.2789   -3.6728 N.ar      1 <0>        -0.5185
     19 C13         4.4015   -7.1073   -3.1299 C.ar      1 <0>         0.0606
     20 C14         4.9857   -5.8555   -3.0884 C.ar      1 <0>        -0.1741
     21 C15         4.6561   -2.7063   -4.9049 C.2       1 <0>        -0.4361
     22 C16         4.1981   -1.4001   -4.9455 C.2       1 <0>         0.5260
     23 N4          3.9854   -0.8019   -6.1481 N.am      1 <0>        -0.6636
     24 C17         4.2169   -1.4701   -7.2929 C.2       1 <0>         0.7005
     25 N5          4.6620   -2.7398   -7.2758 N.am      1 <0>        -0.5523
     26 C18         4.8928   -3.3736   -6.0950 C.2       1 <0>         0.5052
     27 O3          5.3228   -4.5838   -6.0836 O.2       1 <0>        -0.6292
     28 C19         4.9047   -3.4425   -8.5381 C.3       1 <0>         0.1253
     29 C20         6.3505   -3.2100   -8.9815 C.3       1 <0>        -0.1298
     30 C21         6.6040   -3.9439  -10.2998 C.3       1 <0>        -0.1173
     31 C22         8.0498   -3.7113  -10.7432 C.3       1 <0>        -0.1480
     32 O4          4.0205   -0.9186   -8.3585 O.2       1 <0>        -0.6109
     33 O5          3.9754   -0.7585   -3.8554 O.3       1 <0>        -0.5994
     34 O6          2.1630   -2.8055   -3.4366 O.3       1 <0>        -0.6215
     35 H2         -1.8520   -4.2915   -0.4762 H         1 <0>         0.0536
     36 H3         -1.6904   -3.3799    1.0441 H         1 <0>         0.0500
     37 H4         -3.1237   -3.1469    0.0146 H         1 <0>         0.0467
     38 H5         -1.6905   -2.1770   -1.7613 H         1 <0>         0.0618
     39 H6         -1.5289   -1.2654   -0.2410 H         1 <0>         0.0577
     40 H7          0.5363   -2.5282    0.2966 H         1 <0>         0.0578
     41 H8          0.3747   -3.4398   -1.2236 H         1 <0>         0.0681
     42 H9          0.5363   -1.3253   -2.5087 H         1 <0>         0.0858
     43 H10         0.6978   -0.4137   -0.9884 H         1 <0>         0.0716
     44 H11         4.9628   -1.0128    0.2738 H         1 <0>         0.4015
     45 H12         2.4911   -4.1714   -4.6020 H         1 <0>         0.1589
     46 H13         1.5622   -6.4520   -4.6253 H         1 <0>         0.1268
     47 H14         4.9270   -7.9555   -2.7166 H         1 <0>         0.1282
     48 H15         5.9623   -5.7222   -2.6469 H         1 <0>         0.1130
     49 H16         4.7349   -4.5101   -8.3981 H         1 <0>         0.0864
     50 H17         4.2252   -3.0635   -9.3014 H         1 <0>         0.0743
     51 H18         6.5204   -2.1424   -9.1214 H         1 <0>         0.0593
     52 H19         7.0300   -3.5890   -8.2181 H         1 <0>         0.0688
     53 H20         6.4341   -5.0114  -10.1598 H         1 <0>         0.0618
     54 H21         5.9244   -3.5649  -11.0631 H         1 <0>         0.0583
     55 H22         8.2196   -2.6438  -10.8831 H         1 <0>         0.0506
     56 H23         8.7293   -4.0903   -9.9798 H         1 <0>         0.0534
     57 H24         8.2304   -4.2342  -11.6824 H         1 <0>         0.0472
     58 H25         3.6643    0.1129   -6.1809 H         1 <0>         0.4021
@<TRIPOS>BOND
     1    1    2 1
     2    1   35 1
     3    1   36 1
     4    1   37 1
     5    2    3 1
     6    2   38 1
     7    2   39 1
     8    3    4 1
     9    3   40 1
    10    3   41 1
    11    4   42 1
    12    4   43 1
    13    4    5 1
    14    5    6 1
    15    5   10 am
    16    6    7 2
    17    6   34 1
    18    7    8 1
    19    7   13 1
    20    8    9 am
    21    8   12 2
    22    9   10 am
    23    9   44 1
    24   10   11 2
    25   13   14 1
    26   13   15 1
    27   13   21 1
    28   15   20 ar
    29   15   16 ar
    30   16   17 ar
    31   16   45 1
    32   17   18 ar
    33   17   46 1
    34   18   19 ar
    35   19   20 ar
    36   19   47 1
    37   20   48 1
    38   21   26 1
    39   21   22 2
    40   22   33 1
    41   22   23 1
    42   23   58 1
    43   23   24 am
    44   24   32 2
    45   24   25 am
    46   25   26 am
    47   25   28 1
    48   26   27 2
    49   28   29 1
    50   28   49 1
    51   28   50 1
    52   29   30 1
    53   29   51 1
    54   29   52 1
    55   30   31 1
    56   30   53 1
    57   30   54 1
    58   31   55 1
    59   31   56 1
    60   31   57 1
@<TRIPOS>MOLECULE
ZINC12273949
   31    32     0     0     0
SMALL
USER_CHARGES
(2R)-2-[(5E)-5-[(5-bromo-2-furyl)methylene]-4-oxo-2-thioxo-thiazolidin-3-yl]pentanedioic acid
@<TRIPOS>ATOM
      1 C1          4.6885    4.2866    0.1956 C.2       1 <0>        -0.1625
      2 C2          6.0003    3.7941    0.2600 C.2       1 <0>        -0.1753
      3 C3          5.9253    2.4449    0.1911 C.2       1 <0>        -0.0071
      4 O1          4.6376    2.0830    0.0933 O.3       1 <0>        -0.0854
      5 C4          3.8603    3.1866    0.0882 C.2       1 <0>         0.0120
      6 C5          2.4506    3.2117   -0.0045 C.2       1 <0>         0.0538
      7 C6          1.7467    2.0433   -0.0131 C.2       1 <0>        -0.1856
      8 C7          2.2039    0.7058    0.1905 C.2       1 <0>         0.5237
      9 O2          3.3785    0.4711    0.4111 O.2       1 <0>        -0.4432
     10 N1          1.3142   -0.2698    0.1318 N.am      1 <0>        -0.4854
     11 C8          0.0110   -0.0090   -0.1135 C.2       1 <0>         0.2979
     12 S1         -1.2986   -1.1053   -0.2327 S.2       1 <0>        -0.2582
     13 S2          0.0010    1.7693   -0.2829 S.3       1 <0>         0.0004
     14 C9          1.7471   -1.6545    0.3352 C.3       1 <0>         0.0691
     15 H1          2.8213   -1.6761    0.5188 H         1 <0>         0.1109
     16 C10         1.4265   -2.4778   -0.9139 C.3       1 <0>        -0.1055
     17 C11         2.2571   -1.9628   -2.0911 C.3       1 <0>        -0.1517
     18 C12         1.9413   -2.7738   -3.3215 C.2       1 <0>         0.4654
     19 O3          1.1347   -3.6715   -3.2628 O.co2     1 <0>        -0.6316
     20 C13         1.0230   -2.2382    1.5210 C.2       1 <0>         0.4790
     21 O4          0.2270   -1.5664    2.1334 O.co2     1 <0>        -0.6245
     22 Br1         7.3984    1.2599    0.2334 Br        1 <0>         0.0493
     23 H2          4.3856    5.3229    0.2239 H         1 <0>         0.1633
     24 H3          6.9019    4.3820    0.3487 H         1 <0>         0.1595
     25 H4          1.9303    4.1560   -0.0684 H         1 <0>         0.1788
     26 H5          1.6667   -3.5251   -0.7304 H         1 <0>         0.0924
     27 H6          0.3662   -2.3840   -1.1487 H         1 <0>         0.0927
     28 H7          2.0169   -0.9156   -2.2747 H         1 <0>         0.0434
     29 H8          3.3173   -2.0567   -1.8564 H         1 <0>         0.0594
     30 O5          2.5561   -2.4988   -4.4826 O.co2     1 <0>        -0.7890
     31 O6          1.2623   -3.5043    1.8969 O.co2     1 <0>        -0.7462
@<TRIPOS>BOND
     1    1    5 2
     2    1    2 1
     3    1   23 1
     4    2    3 2
     5    2   24 1
     6    3    4 1
     7    3   22 1
     8    4    5 1
     9    5    6 1
    10    6    7 2
    11    6   25 1
    12    7   13 1
    13    7    8 1
    14    8    9 2
    15    8   10 am
    16   10   11 1
    17   10   14 1
    18   11   12 2
    19   11   13 1
    20   14   15 1
    21   14   16 1
    22   14   20 1
    23   16   17 1
    24   16   26 1
    25   16   27 1
    26   17   18 1
    27   17   28 1
    28   17   29 1
    29   18   19 2
    30   18   30 1
    31   20   21 2
    32   20   31 1
@<TRIPOS>MOLECULE
ZINC24716701
   47    50     0     0     0
SMALL
USER_CHARGES

@<TRIPOS>ATOM
      1 C1          0.2631    0.3435    0.9881 C.3       1 <0>        -0.0986
      2 C2         -0.8510   -0.0285    0.0438 C.2       1 <0>         0.3419
      3 N1         -2.0960    0.1547    0.3974 N.2       1 <0>        -0.4979
      4 C3         -3.1088   -0.2863   -0.4105 C.ar      1 <0>         0.2339
      5 C4         -3.1574   -1.6247   -0.8076 C.ar      1 <0>        -0.1662
      6 C5         -4.1811   -2.0624   -1.6215 C.ar      1 <0>        -0.0909
      7 C6         -5.1588   -1.1790   -2.0447 C.ar      1 <0>        -0.1884
      8 C7         -5.1170    0.1479   -1.6553 C.ar      1 <0>        -0.0298
      9 C8         -4.1016    0.5982   -0.8370 C.ar      1 <0>        -0.6591
     10 S1         -4.0539    2.2871   -0.3368 S.o2      1 <0>         2.6953
     11 O1         -3.2823    3.0033   -1.3407 O.2       1 <0>        -1.0428
     12 O2         -5.4319    2.7495   -0.2787 O.2       1 <0>        -1.0995
     13 O3         -3.4132    2.3230    0.9686 O.3       1 <0>        -1.0491
     14 C9         -0.5389   -0.5949   -1.2691 C.2       1 <0>        -0.4970
     15 C10        -0.1046   -1.9458   -1.3826 C.2       1 <0>         0.4269
     16 C11         0.1957   -2.4631   -2.7300 C.ar      1 <0>        -0.1798
     17 C12         0.6256   -3.7775   -2.9166 C.ar      1 <0>        -0.0392
     18 C13         0.8977   -4.2310   -4.1883 C.ar      1 <0>        -0.1863
     19 C14         0.7463   -3.3883   -5.2801 C.ar      1 <0>        -0.0790
     20 C15         0.3229   -2.0878   -5.1106 C.ar      1 <0>        -0.1848
     21 C16         0.0422   -1.6096   -3.8347 C.ar      1 <0>         0.2168
     22 N2         -0.3843   -0.3079   -3.6486 N.pl3     1 <0>        -0.4860
     23 C17        -0.6701    0.1821   -2.4180 C.2       1 <0>         0.4948
     24 O4         -1.0874    1.4586   -2.3016 O.3       1 <0>        -0.5940
     25 C18        -0.5306    0.5259   -4.7636 C.ar      1 <0>         0.1626
     26 C19        -1.6980    0.4848   -5.5148 C.ar      1 <0>        -0.1029
     27 C20        -1.8393    1.3086   -6.6142 C.ar      1 <0>        -0.1149
     28 C21        -0.8197    2.1734   -6.9677 C.ar      1 <0>        -0.1260
     29 C22         0.3440    2.2167   -6.2218 C.ar      1 <0>        -0.1174
     30 C23         0.4890    1.3999   -5.1176 C.ar      1 <0>        -0.1003
     31 O5          0.0157   -2.6526   -0.3964 O.2       1 <0>        -0.5719
     32 H1          0.4472   -0.4819    1.6758 H         1 <0>         0.0713
     33 H2          1.1687    0.5504    0.4179 H         1 <0>         0.0623
     34 H3         -0.0210    1.2310    1.5535 H         1 <0>         0.0728
     35 H4         -2.3948   -2.3150   -0.4783 H         1 <0>         0.1207
     36 H5         -4.2198   -3.0968   -1.9295 H         1 <0>         0.1038
     37 H6         -5.9581   -1.5271   -2.6822 H         1 <0>         0.1046
     38 H7         -5.8830    0.8318   -1.9895 H         1 <0>         0.1180
     39 H8          0.7447   -4.4353   -2.0684 H         1 <0>         0.1274
     40 H9          1.2310   -5.2476   -4.3363 H         1 <0>         0.1137
     41 H10         0.9627   -3.7550   -6.2726 H         1 <0>         0.1147
     42 H11         0.2092   -1.4404   -5.9676 H         1 <0>         0.1204
     43 H12        -2.4944   -0.1909   -5.2397 H         1 <0>         0.1209
     44 H13        -2.7468    1.2772   -7.1988 H         1 <0>         0.1208
     45 H14        -0.9323    2.8161   -7.8283 H         1 <0>         0.1176
     46 H15         1.1384    2.8932   -6.5004 H         1 <0>         0.1202
     47 H16         1.3962    1.4374   -4.5328 H         1 <0>         0.1208
@<TRIPOS>BOND
     1    1    2 1
     2    1   32 1
     3    1   33 1
     4    1   34 1
     5    2    3 2
     6    2   14 1
     7    3    4 1
     8    4    9 ar
     9    4    5 ar
    10    5    6 ar
    11    5   35 1
    12    6    7 ar
    13    6   36 1
    14    7    8 ar
    15    7   37 1
    16    8    9 ar
    17    8   38 1
    18    9   10 1
    19   10   11 2
    20   10   12 2
    21   10   13 1
    22   14   23 2
    23   14   15 1
    24   15   16 1
    25   15   31 2
    26   16   21 ar
    27   16   17 ar
    28   17   18 ar
    29   17   39 1
    30   18   19 ar
    31   18   40 1
    32   19   20 ar
    33   19   41 1
    34   20   21 ar
    35   20   42 1
    36   21   22 1
    37   22   23 1
    38   22   25 1
    39   23   24 1
    40   25   30 ar
    41   25   26 ar
    42   26   27 ar
    43   26   43 1
    44   27   28 ar
    45   27   44 1
    46   28   29 ar
    47   28   45 1
    48   29   30 ar
    49   29   46 1
    50   30   47 1
@<TRIPOS>MOLECULE
ZINC36613166
   39    40     0     0     0
SMALL
USER_CHARGES

@<TRIPOS>ATOM
      1 C1         -0.2390    1.1646    1.6674 C.3       1 <0>         0.0140
      2 O1         -0.1508   -0.1830    1.2002 O.3       1 <0>        -0.3018
      3 C2         -1.2835   -0.7339    0.6869 C.ar      1 <0>         0.1307
      4 C3         -2.4467    0.0077    0.6303 C.ar      1 <0>        -0.1766
      5 C4         -3.6112   -0.5626    0.1011 C.ar      1 <0>        -0.0017
      6 C5         -3.5886   -1.8828   -0.3677 C.ar      1 <0>        -0.0945
      7 C6         -2.4219   -2.6147   -0.3067 C.ar      1 <0>        -0.0776
      8 C7         -1.2674   -2.0453    0.2131 C.ar      1 <0>         0.0850
      9 O2         -0.1195   -2.7700    0.2654 O.3       1 <0>        -0.4795
     10 Br1        -5.1570   -2.6600   -1.0831 Br        1 <0>        -0.0338
     11 C8         -4.8516    0.2200    0.0383 C.2       1 <0>         0.0082
     12 C9         -4.8066    1.5731    0.1425 C.2       1 <0>        -0.1647
     13 C10        -5.9106    2.5436    0.2787 C.2       1 <0>         0.5392
     14 O3         -7.0740    2.1876    0.3139 O.2       1 <0>        -0.4671
     15 N1         -5.5717    3.8192    0.3608 N.am      1 <0>        -0.4765
     16 C11        -4.2814    4.2093    0.3218 C.2       1 <0>         0.2867
     17 S1         -3.6473    5.7969    0.4125 S.2       1 <0>        -0.2490
     18 S2         -3.3939    2.6683    0.1603 S.3       1 <0>        -0.0139
     19 C12        -6.6219    4.8316    0.4969 C.3       1 <0>         0.0380
     20 H1         -7.5968    4.3442    0.5109 H         1 <0>         0.1035
     21 C13        -6.4193    5.6044    1.8017 C.3       1 <0>        -0.1006
     22 C14        -6.6118    4.6593    2.9894 C.3       1 <0>        -0.1779
     23 C15        -6.4123    5.4205    4.2746 C.2       1 <0>         0.4948
     24 O4         -6.1411    6.6088    4.2435 O.co2     1 <0>        -0.6894
     25 O5         -6.5219    4.8481    5.3455 O.co2     1 <0>        -0.7187
     26 C16        -6.5539    5.7855   -0.6677 C.2       1 <0>         0.5103
     27 O6         -5.7067    5.6338   -1.5314 O.co2     1 <0>        -0.6793
     28 O7         -7.3460    6.7090   -0.7464 O.co2     1 <0>        -0.6769
     29 H2          0.7314    1.4806    2.0503 H         1 <0>         0.1079
     30 H3         -0.5345    1.8158    0.8448 H         1 <0>         0.0666
     31 H4         -0.9810    1.2254    2.4635 H         1 <0>         0.0643
     32 H5         -2.4586    1.0247    0.9934 H         1 <0>         0.1587
     33 H6         -2.4050   -3.6324   -0.6678 H         1 <0>         0.1495
     34 H7         -0.0088   -3.2728    1.0839 H         1 <0>         0.3878
     35 H8         -5.7999   -0.2804   -0.0907 H         1 <0>         0.1661
     36 H9         -5.4111    6.0180    1.8262 H         1 <0>         0.0926
     37 H10        -7.1459    6.4147    1.8606 H         1 <0>         0.0877
     38 H11        -7.6200    4.2457    2.9649 H         1 <0>         0.0517
     39 H12        -5.8852    3.8490    2.9305 H         1 <0>         0.0361
@<TRIPOS>BOND
     1    1    2 1
     2    1   29 1
     3    1   30 1
     4    1   31 1
     5    2    3 1
     6    3    8 ar
     7    3    4 ar
     8    4    5 ar
     9    4   32 1
    10    5    6 ar
    11    5   11 1
    12    6    7 ar
    13    6   10 1
    14    7    8 ar
    15    7   33 1
    16    8    9 1
    17    9   34 1
    18   11   12 2
    19   11   35 1
    20   12   18 1
    21   12   13 1
    22   13   14 2
    23   13   15 am
    24   15   16 1
    25   15   19 1
    26   16   17 2
    27   16   18 1
    28   19   20 1
    29   19   21 1
    30   19   26 1
    31   21   22 1
    32   21   36 1
    33   21   37 1
    34   22   23 1
    35   22   38 1
    36   22   39 1
    37   23   24 2
    38   23   25 1
    39   26   27 2
    40   26   28 1
@<TRIPOS>MOLECULE
ZINC13193919
   50    53     0     0     0
SMALL
USER_CHARGES

@<TRIPOS>ATOM
      1 C1         -0.8680    0.4535   -2.2725 C.3       1 <0>         0.0294
      2 O1         -0.3916   -0.6403   -1.4859 O.3       1 <0>        -0.3084
      3 C2         -1.2653   -1.1915   -0.6016 C.ar      1 <0>         0.0982
      4 C3         -2.5545   -0.6943   -0.4976 C.ar      1 <0>        -0.1746
      5 C4         -3.4416   -1.2561    0.4016 C.ar      1 <0>        -0.0948
      6 C5         -3.0455   -2.3139    1.1988 C.ar      1 <0>        -0.0775
      7 C6         -1.7607   -2.8145    1.1004 C.ar      1 <0>        -0.1303
      8 C7         -0.8685   -2.2600    0.1968 C.ar      1 <0>         0.1006
      9 O2          0.3940   -2.7551    0.0944 O.3       1 <0>        -0.3093
     10 C8          0.7149   -3.8866    0.9060 C.3       1 <0>         0.0258
     11 C9         -4.0165   -2.9223    2.1777 C.3       1 <0>         0.2562
     12 H1         -4.9041   -2.2956    2.2634 H         1 <0>         0.0733
     13 C10        -3.3604   -3.0819    3.5294 C.2       1 <0>        -0.4781
     14 C11        -3.3722   -4.4043    3.8152 C.2       1 <0>         0.2907
     15 C12        -4.0121   -5.1358    2.7044 C.2       1 <0>         0.5138
     16 O3         -4.1735   -6.3397    2.6639 O.2       1 <0>        -0.5185
     17 N1         -4.3922   -4.2729    1.7428 N.am      1 <0>        -0.5604
     18 C13        -5.0306   -4.6037    0.5434 C.ar      1 <0>         0.1517
     19 C14        -4.2793   -4.8983   -0.5830 C.ar      1 <0>        -0.0551
     20 C15        -4.9218   -5.2286   -1.7782 C.ar      1 <0>        -0.1244
     21 C16        -6.3184   -5.2596   -1.8301 C.ar      1 <0>        -0.0751
     22 C17        -7.0570   -4.9648   -0.7035 C.ar      1 <0>        -0.1274
     23 C18        -6.4203   -4.6426    0.4825 C.ar      1 <0>        -0.0339
     24 Cl1        -7.3587   -4.2800    1.8972 Cl        1 <0>        -0.0796
     25 C19        -4.1295   -5.5430   -2.9817 C.2       1 <0>         0.5245
     26 O4         -2.9078   -5.5148   -2.9342 O.co2     1 <0>        -0.6779
     27 O5         -4.6943   -5.8319   -4.0274 O.co2     1 <0>        -0.6915
     28 O6         -2.8753   -4.9674    4.9416 O.3       1 <0>        -0.6085
     29 C20        -2.8149   -2.0095    4.3697 C.2       1 <0>         0.4977
     30 O7         -2.1858   -2.2846    5.3763 O.2       1 <0>        -0.4862
     31 C21        -3.0268   -0.6080    3.9982 C.2       1 <0>        -0.2122
     32 C22        -2.4742    0.5388    4.5549 C.2       1 <0>        -0.1241
     33 C23        -2.8666    1.7254    3.9867 C.2       1 <0>        -0.1777
     34 C24        -3.7422    1.7028    2.9495 C.2       1 <0>        -0.2861
     35 S1         -4.0548    0.0698    2.7090 S.3       1 <0>         0.2337
     36 H2         -1.7213    0.1284   -2.8678 H         1 <0>         0.0537
     37 H3         -1.1727    1.2681   -1.6154 H         1 <0>         0.0485
     38 H4         -0.0736    0.7984   -2.9343 H         1 <0>         0.0916
     39 H5         -2.8661    0.1324   -1.1187 H         1 <0>         0.1291
     40 H6         -4.4461   -0.8676    0.4817 H         1 <0>         0.1243
     41 H7         -1.4537   -3.6407    1.7246 H         1 <0>         0.1352
     42 H8          1.6968   -4.2680    0.6259 H         1 <0>         0.0939
     43 H9          0.7260   -3.5900    1.9549 H         1 <0>         0.0548
     44 H10        -0.0335   -4.6649    0.7565 H         1 <0>         0.0587
     45 H11        -3.2006   -4.8723   -0.5369 H         1 <0>         0.1349
     46 H12        -6.8190   -5.5142   -2.7526 H         1 <0>         0.1353
     47 H13        -8.1359   -4.9894   -0.7457 H         1 <0>         0.1272
     48 H14        -1.7807    0.4993    5.3819 H         1 <0>         0.1369
     49 H15        -2.4842    2.6640    4.3599 H         1 <0>         0.1189
     50 H16        -4.1433    2.5427    2.4017 H         1 <0>         0.1727
@<TRIPOS>BOND
     1    1    2 1
     2    1   36 1
     3    1   37 1
     4    1   38 1
     5    2    3 1
     6    3    8 ar
     7    3    4 ar
     8    4    5 ar
     9    4   39 1
    10    5    6 ar
    11    5   40 1
    12    6    7 ar
    13    6   11 1
    14    7    8 ar
    15    7   41 1
    16    8    9 1
    17    9   10 1
    18   10   42 1
    19   10   43 1
    20   10   44 1
    21   11   12 1
    22   11   17 1
    23   11   13 1
    24   13   14 2
    25   13   29 1
    26   14   15 1
    27   14   28 1
    28   15   16 2
    29   15   17 am
    30   17   18 1
    31   18   23 ar
    32   18   19 ar
    33   19   20 ar
    34   19   45 1
    35   20   21 ar
    36   20   25 1
    37   21   22 ar
    38   21   46 1
    39   22   23 ar
    40   22   47 1
    41   23   24 1
    42   25   26 2
    43   25   27 1
    44   29   30 2
    45   29   31 1
    46   31   35 1
    47   31   32 2
    48   32   33 1
    49   32   48 1
    50   33   34 2
    51   33   49 1
    52   34   35 1
    53   34   50 1
@<TRIPOS>MOLECULE
ZINC37263680
   57    60     0     0     0
SMALL
USER_CHARGES

@<TRIPOS>ATOM
      1 C1          0.2351    1.6022    0.0256 C.3       1 <0>        -0.1625
      2 C2          0.1291    0.0797    0.0458 C.3       1 <0>        -0.0297
      3 C3         -1.3031   -0.3589    0.2466 C.3       1 <0>        -0.1383
      4 C4         -1.7836    0.1501    1.6229 C.3       1 <0>         0.1191
      5 H1         -1.8028    1.2337    1.5897 H         1 <0>         0.0639
      6 C5         -0.9185   -0.3756    2.7491 C.3       1 <0>        -0.0556
      7 H2         -1.0595   -1.4803    2.7374 H         1 <0>         0.0753
      8 C6          0.5808   -0.1687    2.5272 C.3       1 <0>        -0.0550
      9 H3          1.1008   -0.8552    3.2371 H         1 <0>         0.0706
     10 C7          0.9887   -0.5682    1.1498 C.3       1 <0>        -0.0785
     11 H4          0.8653   -1.6733    1.0685 H         1 <0>         0.0796
     12 C8          2.4111   -0.2470    0.6786 C.3       1 <0>        -0.1059
     13 C9          2.3223   -0.4988   -0.8530 C.3       1 <0>        -0.1485
     14 C10         0.8180   -0.4516   -1.2218 C.3       1 <0>         0.0931
     15 C11         0.5872    0.4972   -2.3666 C.2       1 <0>         0.3276
     16 O1          1.3997    1.3562   -2.6120 O.2       1 <0>        -0.4255
     17 C12        -0.6578    0.3754   -3.2070 C.3       1 <0>         0.0901
     18 O2         -0.6472    1.3807   -4.2225 O.3       1 <0>        -0.7426
     19 P1         -1.8275    1.5460   -5.3050 P.3       1 <0>         2.1237
     20 O3         -2.0439    0.1867   -6.0533 O.2       1 <0>        -1.1856
     21 O4         -3.1515    1.9570   -4.5754 O.3       1 <0>        -1.1836
     22 O5         -1.4355    2.6550   -6.3398 O.3       1 <0>        -1.1634
     23 O6          0.3348   -1.7540   -1.5382 O.3       1 <0>        -0.5381
     24 C13         0.9584    1.2512    2.9399 C.3       1 <0>        -0.1225
     25 C14         0.9884    1.2561    4.4743 C.3       1 <0>        -0.0949
     26 C15        -0.2558    0.5875    5.0090 C.2       1 <0>        -0.0080
     27 C16        -0.3691    0.5465    6.3479 C.2       1 <0>        -0.2544
     28 C17        -1.5322   -0.1253    6.9624 C.2       1 <0>         0.4121
     29 O7         -1.8441    0.0755    8.1314 O.2       1 <0>        -0.4772
     30 C18        -2.2927   -1.0776    6.1219 C.2       1 <0>        -0.2435
     31 C19        -2.1733   -1.0129    4.7931 C.2       1 <0>        -0.0428
     32 C20        -1.3336    0.0438    4.1365 C.3       1 <0>        -0.0035
     33 C21        -2.2923    1.2282    3.9901 C.3       1 <0>        -0.1533
     34 O8         -3.1258   -0.3371    1.7858 O.3       1 <0>        -0.5747
     35 H5          1.2835    1.8925   -0.0429 H         1 <0>         0.0680
     36 H6         -0.3071    1.9928   -0.8355 H         1 <0>         0.0693
     37 H7         -0.1953    2.0086    0.9409 H         1 <0>         0.0675
     38 H8         -1.9399    0.0634   -0.5330 H         1 <0>         0.0802
     39 H9         -1.3730   -1.4474    0.2243 H         1 <0>         0.0868
     40 H10         2.6869    0.7796    0.8938 H         1 <0>         0.0728
     41 H11         3.1261   -0.9373    1.1337 H         1 <0>         0.0638
     42 H12         2.8664    0.2762   -1.3911 H         1 <0>         0.0881
     43 H13         2.7338   -1.4805   -1.0930 H         1 <0>         0.0736
     44 H14        -0.6875   -0.6102   -3.6717 H         1 <0>         0.0705
     45 H15        -1.5366    0.5060   -2.5755 H         1 <0>         0.0661
     46 H16         0.7344   -2.1402   -2.3296 H         1 <0>         0.3819
     47 H17         1.9417    1.5166    2.5565 H         1 <0>         0.0798
     48 H18         0.2124    1.9694    2.6041 H         1 <0>         0.0765
     49 H19         1.8608    0.7069    4.8198 H         1 <0>         0.0869
     50 H20         1.0247    2.2810    4.8331 H         1 <0>         0.0842
     51 H21         0.4007    1.0105    6.9756 H         1 <0>         0.1381
     52 H22        -2.9406   -1.8287    6.5854 H         1 <0>         0.1390
     53 H23        -2.6935   -1.7439    4.1670 H         1 <0>         0.1407
     54 H24        -3.1616    0.9222    3.4081 H         1 <0>         0.0951
     55 H25        -2.6143    1.5592    4.9775 H         1 <0>         0.0508
     56 H26        -1.7836    2.0465    3.4806 H         1 <0>         0.0653
     57 H27        -3.7408   -0.0305    1.1054 H         1 <0>         0.3871
@<TRIPOS>BOND
     1    1    2 1
     2    1   35 1
     3    1   36 1
     4    1   37 1
     5    2   10 1
     6    2   14 1
     7    2    3 1
     8    3    4 1
     9    3   38 1
    10    3   39 1
    11    4    5 1
    12    4    6 1
    13    4   34 1
    14    6    7 1
    15    6   32 1
    16    6    8 1
    17    8    9 1
    18    8   10 1
    19    8   24 1
    20   10   11 1
    21   10   12 1
    22   12   13 1
    23   12   40 1
    24   12   41 1
    25   13   14 1
    26   13   42 1
    27   13   43 1
    28   14   15 1
    29   14   23 1
    30   15   16 2
    31   15   17 1
    32   17   18 1
    33   17   44 1
    34   17   45 1
    35   18   19 1
    36   19   20 2
    37   19   21 1
    38   19   22 1
    39   23   46 1
    40   24   25 1
    41   24   47 1
    42   24   48 1
    43   25   26 1
    44   25   49 1
    45   25   50 1
    46   26   32 1
    47   26   27 2
    48   27   28 1
    49   27   51 1
    50   28   29 2
    51   28   30 1
    52   30   31 2
    53   30   52 1
    54   31   32 1
    55   31   53 1
    56   32   33 1
    57   33   54 1
    58   33   55 1
    59   33   56 1
    60   34   57 1
@<TRIPOS>MOLECULE
ZINC13397568
   63    67     0     0     0
SMALL
USER_CHARGES
(3S)-1-[2-[[(7S)-3-cyclopentyl-7-methyl-4-oxo-5,6,7,8-tetrahydrobenzothiopheno[2,3-d]pyrimidin-2-yl]sulfanyl]acetyl]piperidine-3-carboxylic acid
@<TRIPOS>ATOM
      1 C1          1.2069   -8.3629   -0.8909 C.3       1 <0>        -0.1465
      2 C2          0.8610   -6.8782   -1.0212 C.3       1 <0>        -0.0872
      3 H1          0.6950   -6.6322   -2.0700 H         1 <0>         0.0763
      4 C3         -0.4052   -6.5731   -0.2154 C.3       1 <0>        -0.1166
      5 C4         -0.8963   -5.1608   -0.5354 C.3       1 <0>        -0.0574
      6 C5          0.2589   -4.1823   -0.3422 C.2       1 <0>        -0.0419
      7 C6          1.5346   -4.6182   -0.3183 C.2       1 <0>        -0.1783
      8 S1          2.5145   -3.1613   -0.0749 S.3       1 <0>         0.1350
      9 C7          1.2034   -1.9668   -0.0052 C.2       1 <0>         0.1258
     10 C8          0.0450   -2.7436   -0.1746 C.2       1 <0>        -0.2609
     11 C9         -1.1937   -2.0274   -0.1608 C.2       1 <0>         0.5606
     12 O1         -2.2508   -2.6183   -0.3007 O.2       1 <0>        -0.5104
     13 N1         -1.1758   -0.6933    0.0152 N.am      1 <0>        -0.5060
     14 C10        -0.0014   -0.0149    0.1680 C.2       1 <0>         0.3602
     15 N2          1.1531   -0.6502    0.1584 N.2       1 <0>        -0.5056
     16 S2         -0.0299    1.7330    0.3882 S.3       1 <0>         0.1055
     17 C11         1.7440    2.0597    0.5389 C.3       1 <0>        -0.1521
     18 C12         1.9675    3.5364    0.7403 C.2       1 <0>         0.5275
     19 O2          1.0208    4.2934    0.7781 O.2       1 <0>        -0.5279
     20 N3          3.2196    4.0158    0.8782 N.am      1 <0>        -0.5970
     21 C13         4.3766    3.1112    0.8346 C.3       1 <0>         0.1023
     22 C14         5.3635    3.6236   -0.2191 C.3       1 <0>        -0.1357
     23 C15         5.7166    5.0814    0.0847 C.3       1 <0>        -0.0978
     24 C16         4.4508    5.9390    0.0183 C.3       1 <0>        -0.1413
     25 H2          4.0039    5.8520   -0.9720 H         1 <0>         0.0721
     26 C17         3.4538    5.4536    1.0690 C.3       1 <0>         0.1358
     27 C18         4.8045    7.3793    0.2857 C.2       1 <0>         0.4674
     28 O3          5.9514    7.6887    0.5067 O.co2     1 <0>        -0.6353
     29 C19        -2.4406    0.0457    0.0368 C.3       1 <0>         0.1160
     30 C20        -3.3286   -0.4602    1.1924 C.3       1 <0>        -0.1295
     31 C21        -4.7656   -0.4144    0.6143 C.3       1 <0>        -0.1168
     32 C22        -4.5586   -0.8623   -0.8539 C.3       1 <0>        -0.1153
     33 C23        -3.2224   -0.2095   -1.2638 C.3       1 <0>        -0.1236
     34 C24         2.0143   -6.0300   -0.4662 C.3       1 <0>        -0.0288
     35 H3          0.3812   -8.9632   -1.2727 H         1 <0>         0.0582
     36 H4          2.1082   -8.5777   -1.4650 H         1 <0>         0.0570
     37 H5          1.3778   -8.6054    0.1580 H         1 <0>         0.0567
     38 H6         -0.1836   -6.6470    0.8492 H         1 <0>         0.0650
     39 H7         -1.1812   -7.2937   -0.4736 H         1 <0>         0.0697
     40 H8         -1.7140   -4.8976    0.1356 H         1 <0>         0.0860
     41 H9         -1.2413   -5.1194   -1.5686 H         1 <0>         0.0769
     42 H10         2.1431    1.5121    1.3928 H         1 <0>         0.1301
     43 H11         2.2516    1.7359   -0.3697 H         1 <0>         0.1306
     44 H12         4.8617    3.0911    1.8105 H         1 <0>         0.0739
     45 H13         4.0458    2.1074    0.5678 H         1 <0>         0.0813
     46 H14         6.2690    3.0173   -0.1946 H         1 <0>         0.0731
     47 H15         4.9077    3.5579   -1.2070 H         1 <0>         0.0635
     48 H16         6.1497    5.1498    1.0826 H         1 <0>         0.0642
     49 H17         6.4375    5.4410   -0.6495 H         1 <0>         0.0669
     50 H18         2.5144    5.9949    0.9570 H         1 <0>         0.1017
     51 H19         3.8621    5.6284    2.0644 H         1 <0>         0.0667
     52 H20        -2.2477    1.1121    0.1533 H         1 <0>         0.1105
     53 H21        -3.0585   -1.4811    1.4623 H         1 <0>         0.0827
     54 H22        -3.2428    0.1992    2.0561 H         1 <0>         0.0752
     55 H23        -5.1661    0.5985    0.6563 H         1 <0>         0.0703
     56 H24        -5.4196   -1.1090    1.1415 H         1 <0>         0.0714
     57 H25        -5.3705   -0.4965   -1.4825 H         1 <0>         0.0653
     58 H26        -4.4872   -1.9483   -0.9150 H         1 <0>         0.0792
     59 H27        -3.4096    0.7332   -1.7780 H         1 <0>         0.0776
     60 H28        -2.6607   -0.8832   -1.9110 H         1 <0>         0.0719
     61 H29         2.3201   -6.4174    0.5057 H         1 <0>         0.0839
     62 H30         2.8578   -6.0614   -1.1558 H         1 <0>         0.0819
     63 O4          3.8455    8.3185    0.2783 O.co2     1 <0>        -0.7639
@<TRIPOS>BOND
     1    1    2 1
     2    1   35 1
     3    1   36 1
     4    1   37 1
     5    2    3 1
     6    2   34 1
     7    2    4 1
     8    4    5 1
     9    4   38 1
    10    4   39 1
    11    5    6 1
    12    5   40 1
    13    5   41 1
    14    6   10 1
    15    6    7 2
    16    7    8 1
    17    7   34 1
    18    8    9 1
    19    9   15 1
    20    9   10 2
    21   10   11 1
    22   11   12 2
    23   11   13 am
    24   13   14 1
    25   13   29 1
    26   14   15 2
    27   14   16 1
    28   16   17 1
    29   17   18 1
    30   17   42 1
    31   17   43 1
    32   18   19 2
    33   18   20 am
    34   20   26 1
    35   20   21 1
    36   21   22 1
    37   21   44 1
    38   21   45 1
    39   22   23 1
    40   22   46 1
    41   22   47 1
    42   23   24 1
    43   23   48 1
    44   23   49 1
    45   24   25 1
    46   24   26 1
    47   24   27 1
    48   26   50 1
    49   26   51 1
    50   27   28 2
    51   27   63 1
    52   29   33 1
    53   29   30 1
    54   29   52 1
    55   30   31 1
    56   30   53 1
    57   30   54 1
    58   31   32 1
    59   31   55 1
    60   31   56 1
    61   32   33 1
    62   32   57 1
    63   32   58 1
    64   33   59 1
    65   33   60 1
    66   34   61 1
    67   34   62 1
@<TRIPOS>MOLECULE
ZINC20064589
   67    70     0     0     0
SMALL
USER_CHARGES
(5R)-5-(4-tert-butylphenyl)-4-(4-chlorobenzoyl)-3-hydroxy-1-(3-morpholinopropyl)-5H-pyrrol-2-one
@<TRIPOS>ATOM
      1 C1          1.7997    4.7207   -5.3687 C.3       1 <0>        -0.1391
      2 C2          0.6433    5.5878   -4.8670 C.3       1 <0>        -0.0256
      3 C3         -0.4931    5.5648   -5.8911 C.3       1 <0>        -0.1447
      4 C4          1.1295    7.0260   -4.6769 C.3       1 <0>        -0.1368
      5 C5          0.1448    5.0480   -3.5512 C.ar      1 <0>        -0.0778
      6 C6          0.9993    4.9712   -2.4674 C.ar      1 <0>        -0.1192
      7 C7          0.5422    4.4756   -1.2606 C.ar      1 <0>        -0.1141
      8 C8         -0.7695    4.0568   -1.1377 C.ar      1 <0>        -0.0779
      9 C9         -1.6226    4.1288   -2.2230 C.ar      1 <0>        -0.0786
     10 C10        -1.1668    4.6293   -3.4283 C.ar      1 <0>        -0.1252
     11 C11        -1.2677    3.5162    0.1778 C.3       1 <0>         0.2645
     12 H1         -0.5301    3.7669    0.9543 H         1 <0>         0.0660
     13 C12        -1.5019    2.0273    0.0722 C.2       1 <0>        -0.5023
     14 C13        -2.8169    1.8204    0.3176 C.2       1 <0>         0.2659
     15 C14        -3.4694    3.1179    0.5927 C.2       1 <0>         0.5115
     16 O1         -4.6473    3.2650    0.8519 O.2       1 <0>        -0.5334
     17 N1         -2.5673    4.1125    0.5087 N.am      1 <0>        -0.6106
     18 C15        -2.8348    5.5385    0.7117 C.3       1 <0>         0.1396
     19 C16        -3.2191    6.1803   -0.6229 C.3       1 <0>        -0.1426
     20 C17        -3.4984    7.6696   -0.4109 C.3       1 <0>         0.0605
     21 N2         -3.8674    8.2858   -1.6923 N.3       1 <0>        -0.5336
     22 C18        -2.7321    8.2793   -2.6263 C.3       1 <0>         0.0158
     23 C19        -3.1762    8.8745   -3.9651 C.3       1 <0>         0.0628
     24 O2         -3.6913   10.1910   -3.7483 O.3       1 <0>        -0.3876
     25 C20        -4.7985   10.2343   -2.8441 C.3       1 <0>         0.0624
     26 C21        -4.3708    9.6528   -1.4940 C.3       1 <0>         0.0170
     27 O3         -3.4352    0.6171    0.3138 O.3       1 <0>        -0.6521
     28 C22        -0.4996    1.0046   -0.2418 C.2       1 <0>         0.5043
     29 O4         -0.5766    0.3759   -1.2806 O.2       1 <0>        -0.4690
     30 C23         0.6080    0.7415    0.7008 C.ar      1 <0>        -0.1290
     31 C24         0.7379    1.5076    1.8617 C.ar      1 <0>        -0.0551
     32 C25         1.7696    1.2532    2.7401 C.ar      1 <0>        -0.1270
     33 C26         2.6833    0.2480    2.4675 C.ar      1 <0>        -0.0216
     34 C27         2.5634   -0.5112    1.3148 C.ar      1 <0>        -0.1259
     35 C28         1.5325   -0.2706    0.4317 C.ar      1 <0>        -0.0637
     36 Cl1         3.9842   -0.0611    3.5747 Cl        1 <0>        -0.0807
     37 H2          2.6167    4.7373   -4.6323 H         1 <0>         0.0558
     38 H3          2.1636    5.1147   -6.3291 H         1 <0>         0.0540
     39 H4          1.4502    3.6867   -5.5054 H         1 <0>         0.0575
     40 H5         -1.3245    6.1882   -5.5303 H         1 <0>         0.0578
     41 H6         -0.8426    4.5308   -6.0278 H         1 <0>         0.0598
     42 H7         -0.1292    5.9588   -6.8515 H         1 <0>         0.0543
     43 H8          0.2981    7.6494   -4.3162 H         1 <0>         0.0547
     44 H9          1.4934    7.4200   -5.6373 H         1 <0>         0.0543
     45 H10         1.9465    7.0425   -3.9405 H         1 <0>         0.0554
     46 H11         2.0242    5.2980   -2.5635 H         1 <0>         0.1133
     47 H12         1.2099    4.4152   -0.4139 H         1 <0>         0.1157
     48 H13        -2.6461    3.7976   -2.1282 H         1 <0>         0.1152
     49 H14        -1.8344    4.6890   -4.2753 H         1 <0>         0.1197
     50 H15        -3.6613    5.6582    1.4276 H         1 <0>         0.0782
     51 H16        -1.9329    6.0280    1.1078 H         1 <0>         0.0718
     52 H17        -2.3926    6.0605   -1.3388 H         1 <0>         0.0791
     53 H18        -4.1211    5.6908   -1.0189 H         1 <0>         0.0751
     54 H19        -4.3249    7.7894    0.3051 H         1 <0>         0.0763
     55 H20        -2.5964    8.1591   -0.0149 H         1 <0>         0.0340
     56 H21        -1.9110    8.8811   -2.2096 H         1 <0>         0.0396
     57 H22        -2.3883    7.2455   -2.7784 H         1 <0>         0.0942
     58 H23        -2.3154    8.9233   -4.6482 H         1 <0>         0.0970
     59 H24        -3.9591    8.2404   -4.4066 H         1 <0>         0.0599
     60 H25        -5.1222   11.2771   -2.7105 H         1 <0>         0.0964
     61 H26        -5.6299    9.6420   -3.2538 H         1 <0>         0.0598
     62 H27        -5.2338    9.6304   -0.8123 H         1 <0>         0.0858
     63 H28        -3.5761   10.2767   -1.0591 H         1 <0>         0.0404
     64 H29         0.0288    2.2943    2.0730 H         1 <0>         0.1434
     65 H30         1.8681    1.8413    3.6405 H         1 <0>         0.1333
     66 H31         3.2788   -1.2934    1.1078 H         1 <0>         0.1325
     67 H32         1.4401   -0.8631   -0.4666 H         1 <0>         0.1388
@<TRIPOS>BOND
     1    1    2 1
     2    1   37 1
     3    1   38 1
     4    1   39 1
     5    2    3 1
     6    2    4 1
     7    2    5 1
     8    3   40 1
     9    3   41 1
    10    3   42 1
    11    4   43 1
    12    4   44 1
    13    4   45 1
    14    5   10 ar
    15    5    6 ar
    16    6    7 ar
    17    6   46 1
    18    7    8 ar
    19    7   47 1
    20    8    9 ar
    21    8   11 1
    22    9   10 ar
    23    9   48 1
    24   10   49 1
    25   11   12 1
    26   11   17 1
    27   11   13 1
    28   13   14 2
    29   13   28 1
    30   14   15 1
    31   14   27 1
    32   15   16 2
    33   15   17 am
    34   17   18 1
    35   18   19 1
    36   18   50 1
    37   18   51 1
    38   19   20 1
    39   19   52 1
    40   19   53 1
    41   20   21 1
    42   20   54 1
    43   20   55 1
    44   21   26 1
    45   21   22 1
    46   22   23 1
    47   22   56 1
    48   22   57 1
    49   23   24 1
    50   23   58 1
    51   23   59 1
    52   24   25 1
    53   25   26 1
    54   25   60 1
    55   25   61 1
    56   26   62 1
    57   26   63 1
    58   28   29 2
    59   28   30 1
    60   30   35 ar
    61   30   31 ar
    62   31   32 ar
    63   31   64 1
    64   32   33 ar
    65   32   65 1
    66   33   34 ar
    67   33   36 1
    68   34   35 ar
    69   34   66 1
    70   35   67 1
@<TRIPOS>MOLECULE
ZINC35024971
   55    59     0     0     0
SMALL
USER_CHARGES

@<TRIPOS>ATOM
      1 C1         -5.0795    1.7917    3.1382 C.3       1 <0>        -0.1489
      2 C2         -3.9410    0.7704    3.0987 C.3       1 <0>         0.0756
      3 H1         -2.9792    1.2707    2.9864 H         1 <0>         0.0851
      4 C3         -4.1624   -0.2531    1.9600 C.3       1 <0>        -0.1025
      5 C4         -3.6365   -1.5323    2.5826 C.ar      1 <0>        -0.1925
      6 C5         -3.2858   -2.7431    2.0392 C.ar      1 <0>        -0.0234
      7 C6         -2.8134   -3.7673    2.8670 C.ar      1 <0>        -0.1639
      8 C7         -2.7041   -3.5441    4.2431 C.ar      1 <0>        -0.0294
      9 C8         -3.0614   -2.3292    4.7769 C.ar      1 <0>        -0.1526
     10 C9         -3.5364   -1.3067    3.9529 C.ar      1 <0>         0.1176
     11 O1         -3.9529   -0.0511    4.2783 O.3       1 <0>        -0.3033
     12 C10        -2.4341   -5.0730    2.2925 C.2       1 <0>         0.5089
     13 C11        -1.8654   -6.1153    3.1531 C.2       1 <0>        -0.5071
     14 C12        -0.5374   -6.0650    3.8718 C.3       1 <0>         0.2650
     15 H2         -0.5214   -5.2295    4.5715 H         1 <0>         0.0695
     16 N1         -0.4174   -7.3343    4.5987 N.am      1 <0>        -0.6097
     17 C13        -1.5249   -8.0577    4.3534 C.2       1 <0>         0.5169
     18 O2         -1.7490   -9.1640    4.8031 O.2       1 <0>        -0.5224
     19 C14        -2.4316   -7.3051    3.4613 C.2       1 <0>         0.2677
     20 O3         -3.6353   -7.7382    3.0205 O.3       1 <0>        -0.6528
     21 C15         0.7091   -7.7416    5.4422 C.3       1 <0>         0.1280
     22 C16         0.4586   -7.2879    6.8817 C.3       1 <0>         0.0617
     23 H3          0.2571   -6.2169    6.9020 H         1 <0>         0.0812
     24 C17         1.6927   -7.6053    7.7532 C.3       1 <0>        -0.1482
     25 C18         1.0445   -8.0746    9.0842 C.3       1 <0>        -0.1549
     26 C19        -0.2275   -8.7855    8.5572 C.3       1 <0>         0.0493
     27 O4         -0.6556   -8.0023    7.4294 O.3       1 <0>        -0.3572
     28 C20         0.5858   -5.9298    2.8762 C.ar      1 <0>        -0.0642
     29 C21         0.9578   -7.0136    2.1025 C.ar      1 <0>        -0.0735
     30 C22         1.9879   -6.8902    1.1892 C.ar      1 <0>        -0.1153
     31 C23         2.6467   -5.6830    1.0490 C.ar      1 <0>        -0.1007
     32 C24         2.2747   -4.5985    1.8225 C.ar      1 <0>        -0.0891
     33 C25         1.2400   -4.7210    2.7327 C.ar      1 <0>        -0.0869
     34 Br1         3.1759   -2.9470    1.6317 Br        1 <0>        -0.0665
     35 O5         -2.5932   -5.2845    1.1046 O.2       1 <0>        -0.4769
     36 H4         -4.9262    2.4746    3.9737 H         1 <0>         0.0667
     37 H5         -5.0940    2.3559    2.2057 H         1 <0>         0.0772
     38 H6         -6.0295    1.2721    3.2632 H         1 <0>         0.0669
     39 H7         -5.2214   -0.3442    1.7184 H         1 <0>         0.0890
     40 H8         -3.5843    0.0163    1.0761 H         1 <0>         0.0892
     41 H9         -3.3739   -2.9046    0.9750 H         1 <0>         0.1308
     42 H10        -2.3380   -4.3289    4.8885 H         1 <0>         0.1432
     43 H11        -2.9742   -2.1641    5.8406 H         1 <0>         0.1282
     44 H12         0.8094   -8.8266    5.4154 H         1 <0>         0.0810
     45 H13         1.6255   -7.2828    5.0709 H         1 <0>         0.0824
     46 H14         2.2867   -8.4036    7.3084 H         1 <0>         0.0780
     47 H15         2.2971   -6.7118    7.9100 H         1 <0>         0.0817
     48 H16         1.6939   -8.7723    9.6129 H         1 <0>         0.0795
     49 H17         0.7863   -7.2250    9.7164 H         1 <0>         0.0761
     50 H18         0.0096   -9.8024    8.2445 H         1 <0>         0.0578
     51 H19        -1.0009   -8.7956    9.3252 H         1 <0>         0.0807
     52 H20         0.4436   -7.9570    2.2120 H         1 <0>         0.1246
     53 H21         2.2784   -7.7371    0.5853 H         1 <0>         0.1272
     54 H22         3.4521   -5.5868    0.3359 H         1 <0>         0.1260
     55 H23         0.9466   -3.8734    3.3343 H         1 <0>         0.1290
@<TRIPOS>BOND
     1    1    2 1
     2    1   36 1
     3    1   37 1
     4    1   38 1
     5    2    3 1
     6    2   11 1
     7    2    4 1
     8    4    5 1
     9    4   39 1
    10    4   40 1
    11    5   10 ar
    12    5    6 ar
    13    6    7 ar
    14    6   41 1
    15    7    8 ar
    16    7   12 1
    17    8    9 ar
    18    8   42 1
    19    9   10 ar
    20    9   43 1
    21   10   11 1
    22   12   13 1
    23   12   35 2
    24   13   19 2
    25   13   14 1
    26   14   16 1
    27   14   28 1
    28   14   15 1
    29   16   21 1
    30   16   17 am
    31   17   18 2
    32   17   19 1
    33   19   20 1
    34   21   22 1
    35   21   44 1
    36   21   45 1
    37   22   23 1
    38   22   27 1
    39   22   24 1
    40   24   25 1
    41   24   46 1
    42   24   47 1
    43   25   26 1
    44   25   48 1
    45   25   49 1
    46   26   27 1
    47   26   50 1
    48   26   51 1
    49   28   33 ar
    50   28   29 ar
    51   29   30 ar
    52   29   52 1
    53   30   31 ar
    54   30   53 1
    55   31   32 ar
    56   31   54 1
    57   32   33 ar
    58   32   34 1
    59   33   55 1
@<TRIPOS>MOLECULE
ZINC38256381
   55    59     0     0     0
SMALL
USER_CHARGES

@<TRIPOS>ATOM
      1 C1         -0.9072   -1.9827   -3.7864 C.3       1 <0>        -0.1482
      2 C2         -1.6062   -3.0802   -2.9815 C.3       1 <0>         0.0750
      3 H1         -2.3438   -3.5969   -3.5956 H         1 <0>         0.0855
      4 C3         -2.2657   -2.4925   -1.7115 C.3       1 <0>        -0.1026
      5 C4         -2.0490   -3.6048   -0.7033 C.ar      1 <0>        -0.1922
      6 C5         -2.6119   -3.8571    0.5229 C.ar      1 <0>        -0.0237
      7 C6         -2.2206   -4.9867    1.2497 C.ar      1 <0>        -0.1625
      8 C7         -1.2571   -5.8482    0.7158 C.ar      1 <0>        -0.0306
      9 C8         -0.6975   -5.5840   -0.5113 C.ar      1 <0>        -0.1529
     10 C9         -1.0841   -4.4552   -1.2367 C.ar      1 <0>         0.1169
     11 O1         -0.6477   -4.0089   -2.4476 O.3       1 <0>        -0.3036
     12 C10        -2.8196   -5.2666    2.5694 C.2       1 <0>         0.5086
     13 C11        -2.4206   -6.4636    3.3167 C.2       1 <0>        -0.5082
     14 C12        -1.0611   -6.7410    3.9147 C.3       1 <0>         0.2619
     15 H2         -0.3039   -6.7609    3.1309 H         1 <0>         0.0709
     16 N1         -1.1575   -8.0571    4.5569 N.am      1 <0>        -0.6096
     17 C13        -2.4086   -8.5164    4.3728 C.2       1 <0>         0.5181
     18 O2         -2.8269   -9.5823    4.7792 O.2       1 <0>        -0.5228
     19 C14        -3.2007   -7.5301    3.6086 C.2       1 <0>         0.2675
     20 O3         -4.4989   -7.6721    3.2548 O.3       1 <0>        -0.6536
     21 C15        -0.0818   -8.7483    5.2719 C.3       1 <0>         0.1283
     22 C16        -0.1367   -8.3798    6.7559 C.3       1 <0>         0.0545
     23 H3          0.0105   -7.3065    6.8759 H         1 <0>         0.0877
     24 C17         0.9579   -9.1481    7.5272 C.3       1 <0>        -0.1485
     25 C18         0.2316   -9.5178    8.8492 C.3       1 <0>        -0.1543
     26 C19        -1.2136   -9.7430    8.3379 C.3       1 <0>         0.0509
     27 O4         -1.4038   -8.7608    7.3046 O.3       1 <0>        -0.3556
     28 C20        -0.7208   -5.6886    4.9383 C.ar      1 <0>        -0.0573
     29 C21         0.2307   -4.7277    4.6514 C.ar      1 <0>        -0.1118
     30 C22         0.5428   -3.7620    5.5897 C.ar      1 <0>        -0.0958
     31 C23        -0.0971   -3.7572    6.8160 C.ar      1 <0>        -0.0952
     32 C24        -1.0492   -4.7188    7.1027 C.ar      1 <0>        -0.0947
     33 C25        -1.3644   -5.6810    6.1618 C.ar      1 <0>        -0.0750
     34 Br1         0.3299   -2.4366    8.1005 Br        1 <0>        -0.0702
     35 O5         -3.6446   -4.5040    3.0373 O.2       1 <0>        -0.4756
     36 H4         -0.4131   -2.4253   -4.6514 H         1 <0>         0.0667
     37 H5         -1.6442   -1.2534   -4.1227 H         1 <0>         0.0774
     38 H6         -0.1663   -1.4877   -3.1586 H         1 <0>         0.0664
     39 H7         -1.7612   -1.5786   -1.3978 H         1 <0>         0.0888
     40 H8         -3.3289   -2.3136   -1.8718 H         1 <0>         0.0896
     41 H9         -3.3554   -3.1852    0.9257 H         1 <0>         0.1311
     42 H10        -0.9515   -6.7236    1.2696 H         1 <0>         0.1433
     43 H11         0.0461   -6.2538   -0.9172 H         1 <0>         0.1283
     44 H12        -0.2050   -9.8256    5.1603 H         1 <0>         0.0803
     45 H13         0.8810   -8.4479    4.8584 H         1 <0>         0.0822
     46 H14         1.2573  -10.0451    6.9852 H         1 <0>         0.0771
     47 H15         1.8172   -8.5068    7.7229 H         1 <0>         0.0798
     48 H16         0.6422  -10.4305    9.2810 H         1 <0>         0.0788
     49 H17         0.2720   -8.6950    9.5630 H         1 <0>         0.0755
     50 H18        -1.3180  -10.7481    7.9293 H         1 <0>         0.0580
     51 H19        -1.9293   -9.5855    9.1448 H         1 <0>         0.0799
     52 H20         0.7305   -4.7318    3.6940 H         1 <0>         0.1283
     53 H21         1.2865   -3.0116    5.3656 H         1 <0>         0.1264
     54 H22        -1.5491   -4.7154    8.0600 H         1 <0>         0.1263
     55 H23        -2.1107   -6.4294    6.3839 H         1 <0>         0.1343
@<TRIPOS>BOND
     1    1    2 1
     2    1   36 1
     3    1   37 1
     4    1   38 1
     5    2    3 1
     6    2   11 1
     7    2    4 1
     8    4    5 1
     9    4   39 1
    10    4   40 1
    11    5   10 ar
    12    5    6 ar
    13    6    7 ar
    14    6   41 1
    15    7    8 ar
    16    7   12 1
    17    8    9 ar
    18    8   42 1
    19    9   10 ar
    20    9   43 1
    21   10   11 1
    22   12   13 1
    23   12   35 2
    24   13   19 2
    25   13   14 1
    26   14   16 1
    27   14   28 1
    28   14   15 1
    29   16   21 1
    30   16   17 am
    31   17   18 2
    32   17   19 1
    33   19   20 1
    34   21   22 1
    35   21   44 1
    36   21   45 1
    37   22   23 1
    38   22   27 1
    39   22   24 1
    40   24   25 1
    41   24   46 1
    42   24   47 1
    43   25   26 1
    44   25   48 1
    45   25   49 1
    46   26   27 1
    47   26   50 1
    48   26   51 1
    49   28   33 ar
    50   28   29 ar
    51   29   30 ar
    52   29   52 1
    53   30   31 ar
    54   30   53 1
    55   31   32 ar
    56   31   34 1
    57   32   33 ar
    58   32   54 1
    59   33   55 1
@<TRIPOS>MOLECULE
ZINC33395300
   43    45     0     0     0
SMALL
USER_CHARGES

@<TRIPOS>ATOM
      1 C1         -2.4801    0.8176   -2.8898 C.3       1 <0>         0.0243
      2 O1         -2.0402   -0.3210   -2.1467 O.3       1 <0>        -0.3026
      3 C2         -0.7753   -0.7614   -2.3829 C.ar      1 <0>         0.1132
      4 C3          0.0555   -0.0507   -3.2222 C.ar      1 <0>        -0.0869
      5 C4          1.3613   -0.5082   -3.4634 C.ar      1 <0>        -0.0422
      6 C5          1.8113   -1.6880   -2.8469 C.ar      1 <0>        -0.0628
      7 C6          0.9718   -2.3889   -2.0106 C.ar      1 <0>        -0.1597
      8 C7         -0.3180   -1.9302   -1.7701 C.ar      1 <0>         0.1217
      9 O2         -1.1379   -2.6233   -0.9402 O.3       1 <0>        -0.2927
     10 C8         -0.6074   -3.8099   -0.3464 C.3       1 <0>         0.1681
     11 C9         -1.6288   -4.4257    0.5162 C.1       1 <0>        -0.1962
     12 C10        -2.4435   -4.9169    1.2042 C.1       1 <0>        -0.1602
     13 Br1         3.5675   -2.3125   -3.1658 Br        1 <0>        -0.0368
     14 C11         2.2215    0.2169   -4.3257 C.2       1 <0>         0.0426
     15 C12         2.3807    1.5838   -4.1570 C.2       1 <0>        -0.2218
     16 C13         3.0891    2.4040   -5.1519 C.2       1 <0>         0.4960
     17 O3          3.6079    1.8441   -6.2649 O.3       1 <0>        -0.6264
     18 N1          3.2056    3.7022   -4.9306 N.2       1 <0>        -0.6571
     19 C14         2.7040    4.2815   -3.8427 C.2       1 <0>         0.6667
     20 O4          2.8519    5.4835   -3.7105 O.2       1 <0>        -0.5590
     21 N2          2.0442    3.6152   -2.8841 N.am      1 <0>        -0.5479
     22 C15         1.8415    2.2831   -2.9742 C.2       1 <0>         0.5579
     23 O5          1.2387    1.6787   -2.1070 O.2       1 <0>        -0.4997
     24 C16         1.5522    4.3136   -1.7730 C.ar      1 <0>         0.1584
     25 C17         2.0742    4.0676   -0.5101 C.ar      1 <0>        -0.0909
     26 C18         1.5880    4.7575    0.5831 C.ar      1 <0>        -0.1017
     27 C19         0.5813    5.6929    0.4207 C.ar      1 <0>        -0.0371
     28 C20         0.0591    5.9396   -0.8369 C.ar      1 <0>        -0.1022
     29 C21         0.5462    5.2567   -1.9342 C.ar      1 <0>        -0.0845
     30 Cl1        -0.0281    6.5581    1.7969 Cl        1 <0>        -0.0784
     31 H1         -1.8857    1.6869   -2.6083 H         1 <0>         0.0589
     32 H2         -2.3593    0.6246   -3.9557 H         1 <0>         0.0554
     33 H3         -3.5307    1.0098   -2.6721 H         1 <0>         0.1011
     34 H4         -0.2967    0.8551   -3.6932 H         1 <0>         0.1398
     35 H5          1.3178   -3.2957   -1.5368 H         1 <0>         0.1455
     36 H6         -0.3221   -4.5120   -1.1298 H         1 <0>         0.0890
     37 H7          0.2684   -3.5568    0.2512 H         1 <0>         0.0890
     38 H8         -3.1721   -5.3562    1.8195 H         1 <0>         0.2245
     39 H9          2.7530   -0.2954   -5.1141 H         1 <0>         0.1605
     40 H10         2.8594    3.3372   -0.3828 H         1 <0>         0.1303
     41 H11         1.9937    4.5665    1.5656 H         1 <0>         0.1351
     42 H12        -0.7271    6.6696   -0.9610 H         1 <0>         0.1360
     43 H13         0.1414    5.4527   -2.9161 H         1 <0>         0.1330
@<TRIPOS>BOND
     1    1    2 1
     2    1   31 1
     3    1   32 1
     4    1   33 1
     5    2    3 1
     6    3    8 ar
     7    3    4 ar
     8    4    5 ar
     9    4   34 1
    10    5    6 ar
    11    5   14 1
    12    6    7 ar
    13    6   13 1
    14    7    8 ar
    15    7   35 1
    16    8    9 1
    17    9   10 1
    18   10   11 1
    19   10   36 1
    20   10   37 1
    21   11   12 3
    22   12   38 1
    23   14   15 2
    24   14   39 1
    25   15   22 1
    26   15   16 1
    27   16   17 1
    28   16   18 2
    29   18   19 1
    30   19   20 2
    31   19   21 am
    32   21   22 am
    33   21   24 1
    34   22   23 2
    35   24   29 ar
    36   24   25 ar
    37   25   26 ar
    38   25   40 1
    39   26   27 ar
    40   26   41 1
    41   27   28 ar
    42   27   30 1
    43   28   29 ar
    44   28   42 1
    45   29   43 1
@<TRIPOS>MOLECULE
ZINC02889034
   35    38     0     0     0
SMALL
USER_CHARGES
N-(3-chloro-4-fluoro-phenyl)-7-(4-chlorophenyl)-9-thia-2,4-diazabicyclo[4.3.0]nona-1,3,5,7-tetraen-5-amine
@<TRIPOS>ATOM
      1 C1          2.3071   -2.5201   -0.1282 C.ar      1 <0>        -0.1176
      2 C2          2.5245   -3.7372    0.4845 C.ar      1 <0>        -0.1054
      3 C3          2.0071   -3.9826    1.7450 C.ar      1 <0>        -0.0288
      4 C4          1.2751   -3.0071    2.4002 C.ar      1 <0>        -0.0997
      5 C5          1.0567   -1.7845    1.7990 C.ar      1 <0>        -0.0860
      6 C6          1.5751   -1.5323    0.5294 C.ar      1 <0>        -0.0424
      7 C7          1.3437   -0.2208   -0.1213 C.2       1 <0>        -0.0536
      8 C8          0.0873    0.1971   -0.4029 C.2       1 <0>        -0.1491
      9 S1          0.3387    1.7908   -1.1609 S.3       1 <0>         0.1355
     10 C9          2.1087    1.8622   -1.0846 C.ar      1 <0>         0.1501
     11 C10         2.4660    0.6438   -0.4707 C.ar      1 <0>        -0.2342
     12 C11         3.8593    0.4399   -0.2849 C.ar      1 <0>         0.4822
     13 N1          4.7080    1.3735   -0.6854 N.ar      1 <0>        -0.5758
     14 C12         4.3024    2.4938   -1.2547 C.ar      1 <0>         0.3661
     15 N2          3.0217    2.7394   -1.4537 N.ar      1 <0>        -0.5128
     16 N3          4.3242   -0.7212    0.3085 N.pl3     1 <0>        -0.6446
     17 C13         5.6917   -0.8806    0.5571 C.ar      1 <0>         0.1537
     18 C14         6.4678    0.2174    0.9055 C.ar      1 <0>        -0.0788
     19 C15         7.8165    0.0575    1.1558 C.ar      1 <0>        -0.1194
     20 C16         8.3981   -1.1945    1.0490 C.ar      1 <0>         0.0959
     21 C17         7.6275   -2.2906    0.6960 C.ar      1 <0>        -0.0530
     22 C18         6.2760   -2.1357    0.4503 C.ar      1 <0>        -0.1126
     23 Cl1         8.3593   -3.8591    0.5629 Cl        1 <0>        -0.0412
     24 F1          9.7187   -1.3476    1.2897 F         1 <0>        -0.1248
     25 Cl2         2.2777   -5.5188    2.5069 Cl        1 <0>        -0.0551
     26 H1          2.7071   -2.3313   -1.1135 H         1 <0>         0.1386
     27 H2          3.0954   -4.5013   -0.0220 H         1 <0>         0.1435
     28 H3          0.8740   -3.2035    3.3835 H         1 <0>         0.1433
     29 H4          0.4849   -1.0245    2.3107 H         1 <0>         0.1415
     30 H5         -0.8454   -0.3134   -0.2132 H         1 <0>         0.2010
     31 H6          5.0349    3.2245   -1.5643 H         1 <0>         0.2137
     32 H7          3.7018   -1.4243    0.5518 H         1 <0>         0.4231
     33 H8          6.0158    1.1951    0.9847 H         1 <0>         0.1524
     34 H9          8.4191    0.9106    1.4307 H         1 <0>         0.1511
     35 H10         5.6752   -2.9899    0.1752 H         1 <0>         0.1429
@<TRIPOS>BOND
     1    1    6 ar
     2    1    2 ar
     3    1   26 1
     4    2    3 ar
     5    2   27 1
     6    3    4 ar
     7    3   25 1
     8    4    5 ar
     9    4   28 1
    10    5    6 ar
    11    5   29 1
    12    6    7 1
    13    7   11 1
    14    7    8 2
    15    8    9 1
    16    8   30 1
    17    9   10 1
    18   10   15 ar
    19   10   11 ar
    20   11   12 ar
    21   12   13 ar
    22   12   16 1
    23   13   14 ar
    24   14   15 ar
    25   14   31 1
    26   16   17 1
    27   16   32 1
    28   17   22 ar
    29   17   18 ar
    30   18   19 ar
    31   18   33 1
    32   19   20 ar
    33   19   34 1
    34   20   21 ar
    35   20   24 1
    36   21   22 ar
    37   21   23 1
    38   22   35 1
@<TRIPOS>MOLECULE
ZINC13642074
   58    64     0     0     0
SMALL
USER_CHARGES
(9-ethylcarbazol-3-yl)BLAH
@<TRIPOS>ATOM
      1 C1         -4.2158    3.5760   -1.3831 C.3       1 <0>        -0.1723
      2 C2         -3.7080    3.6916    0.0555 C.3       1 <0>         0.1097
      3 N1         -2.2863    4.0450    0.0446 N.pl3     1 <0>        -0.5051
      4 C3         -1.2451    3.1341    0.0299 C.ar      1 <0>         0.1430
      5 C4         -1.2185    1.7427    0.0173 C.ar      1 <0>        -0.1435
      6 C5         -0.0126    1.0758    0.0080 C.ar      1 <0>        -0.0836
      7 C6          1.1821    1.7796    0.0003 C.ar      1 <0>        -0.1517
      8 C7          1.1761    3.1577    0.0073 C.ar      1 <0>        -0.0615
      9 C8         -0.0357    3.8445    0.0221 C.ar      1 <0>        -0.1043
     10 C9         -0.3910    5.2755    0.0331 C.ar      1 <0>        -0.1047
     11 C10        -1.7926    5.3373    0.0468 C.ar      1 <0>         0.1490
     12 C11        -2.4198    6.5792    0.0594 C.ar      1 <0>        -0.1462
     13 C12        -1.6658    7.7332    0.0579 C.ar      1 <0>        -0.0519
     14 C13        -0.2812    7.6703    0.0448 C.ar      1 <0>        -0.1149
     15 C14         0.3585    6.4492    0.0322 C.ar      1 <0>        -0.0490
     16 C15         0.5280    8.9416    0.0434 C.3       1 <0>         0.1589
     17 H1          1.5366    8.7397   -0.3174 H         1 <0>         0.0666
     18 C16         0.5857    9.5191    1.4429 C.3       1 <0>        -0.0873
     19 H2         -0.3936    9.8666    1.7721 H         1 <0>         0.0977
     20 C17         1.3129    8.7106    2.5236 C.3       1 <0>        -0.0846
     21 C18         1.8197    9.8223    3.4460 C.2       1 <0>        -0.1645
     22 C19         1.9680   10.9492    2.7577 C.2       1 <0>        -0.1488
     23 C20         1.6174   10.6853    1.3409 C.3       1 <0>        -0.0347
     24 H3          2.5042   10.3007    0.8372 H         1 <0>         0.0806
     25 C21         1.0150   11.7135    0.4627 C.ar      1 <0>        -0.1305
     26 C22         1.2529   13.0688    0.6670 C.ar      1 <0>        -0.0727
     27 C23         0.7118   14.0176   -0.1430 C.ar      1 <0>        -0.1423
     28 C24        -0.1040   13.6268   -1.2189 C.ar      1 <0>        -0.0266
     29 C25        -0.6738   14.5812   -2.0805 C.ar      1 <0>        -0.1129
     30 C26        -1.4538   14.1703   -3.1175 C.ar      1 <0>        -0.1108
     31 C27        -1.6984   12.8163   -3.3376 C.ar      1 <0>        -0.1260
     32 C28        -1.1655   11.8663   -2.5207 C.ar      1 <0>        -0.0962
     33 C29        -0.3561   12.2538   -1.4401 C.ar      1 <0>        -0.0731
     34 C30         0.2031   11.2784   -0.5743 C.ar      1 <0>         0.1561
     35 N2         -0.1194    9.9476   -0.8132 N.pl3     1 <0>        -0.6370
     36 H4         -3.6532    2.8026   -1.9059 H         1 <0>         0.0617
     37 H5         -5.2736    3.3131   -1.3750 H         1 <0>         0.0746
     38 H6         -4.0824    4.5300   -1.8933 H         1 <0>         0.0621
     39 H7         -3.8414    2.7377    0.5657 H         1 <0>         0.0869
     40 H8         -4.2706    4.4651    0.5784 H         1 <0>         0.0873
     41 H9         -2.1435    1.1852    0.0187 H         1 <0>         0.1212
     42 H10         0.0021   -0.0041    0.0020 H         1 <0>         0.1281
     43 H11         2.1209    1.2457   -0.0115 H         1 <0>         0.1263
     44 H12         2.1081    3.7034    0.0017 H         1 <0>         0.1239
     45 H13        -3.4981    6.6391    0.0700 H         1 <0>         0.1215
     46 H14        -2.1581    8.6944    0.0674 H         1 <0>         0.1343
     47 H15         1.4374    6.4029    0.0221 H         1 <0>         0.1226
     48 H16         0.6227    8.0507    3.0492 H         1 <0>         0.0744
     49 H17         2.1430    8.1467    2.0980 H         1 <0>         0.0800
     50 H18         2.0262    9.7076    4.4998 H         1 <0>         0.1297
     51 H19         2.2897   11.8976    3.1620 H         1 <0>         0.1302
     52 H20         1.8826   13.3750    1.4892 H         1 <0>         0.1207
     53 H21         0.9075   15.0640    0.0391 H         1 <0>         0.1255
     54 H22        -0.4935   15.6339   -1.9203 H         1 <0>         0.1265
     55 H23        -1.8897   14.9043   -3.7790 H         1 <0>         0.1216
     56 H24        -2.3201   12.5160   -4.1681 H         1 <0>         0.1212
     57 H25        -1.3637   10.8204   -2.7028 H         1 <0>         0.1268
     58 H26        -0.0088    9.7167   -1.7891 H         1 <0>         0.3676
@<TRIPOS>BOND
     1    1    2 1
     2    1   36 1
     3    1   37 1
     4    1   38 1
     5    2    3 1
     6    2   39 1
     7    2   40 1
     8    3   11 1
     9    3    4 1
    10    4    9 ar
    11    4    5 ar
    12    5    6 ar
    13    5   41 1
    14    6    7 ar
    15    6   42 1
    16    7    8 ar
    17    7   43 1
    18    8    9 ar
    19    8   44 1
    20    9   10 1
    21   10   15 ar
    22   10   11 ar
    23   11   12 ar
    24   12   13 ar
    25   12   45 1
    26   13   14 ar
    27   13   46 1
    28   14   15 ar
    29   14   16 1
    30   15   47 1
    31   16   17 1
    32   16   35 1
    33   16   18 1
    34   18   19 1
    35   18   23 1
    36   18   20 1
    37   20   21 1
    38   20   48 1
    39   20   49 1
    40   21   22 2
    41   21   50 1
    42   22   23 1
    43   22   51 1
    44   23   24 1
    45   23   25 1
    46   25   34 ar
    47   25   26 ar
    48   26   27 ar
    49   26   52 1
    50   27   28 ar
    51   27   53 1
    52   28   33 ar
    53   28   29 ar
    54   29   30 ar
    55   29   54 1
    56   30   31 ar
    57   30   55 1
    58   31   32 ar
    59   31   56 1
    60   32   33 ar
    61   32   57 1
    62   33   34 ar
    63   34   35 1
    64   35   58 1
@<TRIPOS>MOLECULE
ZINC14480631
   43    46     0     0     0
SMALL
USER_CHARGES
(3aR,4R,9bS)-6,8,9-trichloro-4-(4-ethoxyphenyl)-3a,4,5,9b-tetrahydro-3H-cyclopenta[c]quinoline
@<TRIPOS>ATOM
      1 C1          4.4837   -1.5324   -6.5322 C.3       1 <0>        -0.1533
      2 C2          3.7043   -1.3046   -5.2355 C.3       1 <0>         0.0540
      3 O1          3.9347    0.0262   -4.7687 O.3       1 <0>        -0.3146
      4 C3          3.3109    0.3933   -3.6185 C.ar      1 <0>         0.1362
      5 C4          3.4901    1.6708   -3.1081 C.ar      1 <0>        -0.1468
      6 C5          2.8545    2.0416   -1.9390 C.ar      1 <0>        -0.0653
      7 C6          2.0402    1.1409   -1.2777 C.ar      1 <0>        -0.1571
      8 C7          1.8644   -0.1347   -1.7813 C.ar      1 <0>        -0.0773
      9 C8          2.4933   -0.5087   -2.9531 C.ar      1 <0>        -0.1997
     10 C9          1.3480    1.5481   -0.0025 C.3       1 <0>         0.1395
     11 H1          1.9823    1.2978    0.8479 H         1 <0>         0.1136
     12 C10         1.0968    3.0476   -0.0210 C.3       1 <0>        -0.0854
     13 H2          2.0313    3.6065    0.0280 H         1 <0>         0.1041
     14 C11         0.1363    3.4458    1.1263 C.3       1 <0>        -0.0970
     15 C12        -0.6159    4.6386    0.5331 C.2       1 <0>        -0.1514
     16 C13        -0.5347    4.6394   -0.7734 C.2       1 <0>        -0.1677
     17 C14         0.2664    3.4424   -1.2592 C.3       1 <0>        -0.0151
     18 H3          0.9116    3.7130   -2.0950 H         1 <0>         0.1004
     19 C15        -0.6924    2.3481   -1.6479 C.ar      1 <0>        -0.0688
     20 C16        -0.7832    1.1381   -0.9451 C.ar      1 <0>         0.1675
     21 C17        -1.6589    0.1595   -1.4154 C.ar      1 <0>        -0.0772
     22 C18        -2.5134    0.4132   -2.4689 C.ar      1 <0>        -0.0634
     23 C19        -2.4613    1.6345   -3.1171 C.ar      1 <0>        -0.0525
     24 C20        -1.5561    2.5956   -2.7084 C.ar      1 <0>         0.0040
     25 Cl1        -1.4972    4.1253   -3.5270 Cl        1 <0>        -0.0338
     26 Cl2        -3.5324    1.9593   -4.4441 Cl        1 <0>        -0.0394
     27 Cl3        -1.7230   -1.3721   -0.6007 Cl        1 <0>        -0.0478
     28 N1          0.0769    0.8304    0.1113 N.pl3     1 <0>        -0.6094
     29 H4          4.1501   -0.8199   -7.2866 H         1 <0>         0.0673
     30 H5          5.5484   -1.3921   -6.3456 H         1 <0>         0.0672
     31 H6          4.3079   -2.5475   -6.8883 H         1 <0>         0.0798
     32 H7          4.0378   -2.0171   -4.4811 H         1 <0>         0.0624
     33 H8          2.6396   -1.4449   -5.4222 H         1 <0>         0.0622
     34 H9          4.1257    2.3748   -3.6244 H         1 <0>         0.1332
     35 H10         2.9934    3.0361   -1.5414 H         1 <0>         0.1339
     36 H11         1.2317   -0.8381   -1.2604 H         1 <0>         0.1159
     37 H12         2.3522   -1.5037   -3.3485 H         1 <0>         0.1284
     38 H13        -0.5554    2.6333    1.3486 H         1 <0>         0.0971
     39 H14         0.6973    3.7295    2.0167 H         1 <0>         0.0756
     40 H15        -1.1324    5.3852    1.1180 H         1 <0>         0.1270
     41 H16        -0.9750    5.3869   -1.4166 H         1 <0>         0.1308
     42 H17        -3.2202   -0.3391   -2.7866 H         1 <0>         0.1537
     43 H18         0.2282   -0.1651    0.1762 H         1 <0>         0.3691
@<TRIPOS>BOND
     1    1    2 1
     2    1   29 1
     3    1   30 1
     4    1   31 1
     5    2    3 1
     6    2   32 1
     7    2   33 1
     8    3    4 1
     9    4    9 ar
    10    4    5 ar
    11    5    6 ar
    12    5   34 1
    13    6    7 ar
    14    6   35 1
    15    7    8 ar
    16    7   10 1
    17    8    9 ar
    18    8   36 1
    19    9   37 1
    20   10   11 1
    21   10   28 1
    22   10   12 1
    23   12   13 1
    24   12   17 1
    25   12   14 1
    26   14   15 1
    27   14   38 1
    28   14   39 1
    29   15   16 2
    30   15   40 1
    31   16   17 1
    32   16   41 1
    33   17   18 1
    34   17   19 1
    35   19   24 ar
    36   19   20 ar
    37   20   21 ar
    38   20   28 1
    39   21   22 ar
    40   21   27 1
    41   22   23 ar
    42   22   42 1
    43   23   24 ar
    44   23   26 1
    45   24   25 1
    46   28   43 1
@<TRIPOS>MOLECULE
ZINC15188068
   56    60     0     0     0
SMALL
USER_CHARGES
N-[4-[(3aR,4S,9bR)-8-methyl-3a,4,5,9b-tetrahydro-3H-cyclopenta[c]quinolin-4-yl]phenyl]-1-(4-methoxyphenyl)methanimine
@<TRIPOS>ATOM
      1 C1          6.2168    6.1217    2.6864 C.3       1 <0>        -0.1087
      2 C2          4.7902    6.1076    2.2010 C.ar      1 <0>        -0.1396
      3 C3          3.9093    5.1502    2.6703 C.ar      1 <0>        -0.0786
      4 C4          2.6006    5.1386    2.2338 C.ar      1 <0>        -0.1921
      5 C5          2.1578    6.0870    1.3194 C.ar      1 <0>         0.2147
      6 C6          3.0580    7.0447    0.8389 C.ar      1 <0>        -0.1416
      7 C7          4.3614    7.0519    1.2868 C.ar      1 <0>        -0.0742
      8 C8          2.5632    8.0359   -0.1346 C.3       1 <0>        -0.0179
      9 H1          2.8901    7.5120   -1.0449 H         1 <0>         0.0998
     10 C9          3.1538    9.3894   -0.2899 C.2       1 <0>        -0.1630
     11 C10         2.2016   10.2243   -0.6887 C.2       1 <0>        -0.1815
     12 C11         0.8701    9.4805   -0.8083 C.3       1 <0>        -0.0882
     13 C12         1.0679    8.3305    0.1887 C.3       1 <0>        -0.0745
     14 H2          0.7259    8.6044    1.1977 H         1 <0>         0.1019
     15 C13         0.3099    7.0430   -0.0826 C.3       1 <0>         0.2025
     16 H3         -0.7785    7.1635    0.0212 H         1 <0>         0.0968
     17 N1          0.8219    6.0642    0.9011 N.pl3     1 <0>        -0.7544
     18 C14         0.5833    6.5635   -1.4848 C.ar      1 <0>        -0.1184
     19 C15        -0.2255    6.9832   -2.5261 C.ar      1 <0>        -0.0890
     20 C16         0.0219    6.5521   -3.8128 C.ar      1 <0>        -0.1456
     21 C17         1.0853    5.6815   -4.0617 C.ar      1 <0>         0.1090
     22 C18         1.8944    5.2578   -3.0051 C.ar      1 <0>        -0.1410
     23 C19         1.6386    5.7011   -1.7242 C.ar      1 <0>        -0.0803
     24 N2          1.3331    5.2453   -5.3351 N.2       1 <0>        -0.4972
     25 C20         0.3747    4.7113   -6.0392 C.2       1 <0>         0.2262
     26 C21        -0.8085    4.1531   -5.3670 C.ar      1 <0>        -0.1763
     27 C22        -0.8173    3.9966   -3.9767 C.ar      1 <0>        -0.0551
     28 C23        -1.9295    3.4785   -3.3516 C.ar      1 <0>        -0.2129
     29 C24        -3.0378    3.1010   -4.1005 C.ar      1 <0>         0.1528
     30 C25        -3.0320    3.2495   -5.4824 C.ar      1 <0>        -0.1628
     31 C26        -1.9267    3.7716   -6.1164 C.ar      1 <0>        -0.0378
     32 O1         -4.1299    2.5858   -3.4801 O.3       1 <0>        -0.3134
     33 C27        -4.0693    2.4604   -2.0579 C.3       1 <0>         0.0219
     34 H4          6.3682    5.3014    3.4035 H         1 <0>         0.0611
     35 H5          6.4271    7.0827    3.1787 H         1 <0>         0.0633
     36 H6          6.8963    5.9913    1.8313 H         1 <0>         0.0631
     37 H7          4.2467    4.4099    3.3806 H         1 <0>         0.1178
     38 H8          1.9170    4.3892    2.6046 H         1 <0>         0.1175
     39 H9          5.0511    7.7985    0.9216 H         1 <0>         0.1173
     40 H10         4.1783    9.7580   -0.1334 H         1 <0>         0.1294
     41 H11         2.4408   11.2810   -0.8788 H         1 <0>         0.1288
     42 H12         0.0467   10.1562   -0.5338 H         1 <0>         0.0714
     43 H13         0.7332    9.1379   -1.8446 H         1 <0>         0.0851
     44 H14         0.1493    5.3001    1.3180 H         1 <0>         0.4185
     45 H15        -1.0500    7.6531   -2.3316 H         1 <0>         0.1243
     46 H16        -0.6079    6.8834   -4.6252 H         1 <0>         0.1220
     47 H17         2.7182    4.5844   -3.1904 H         1 <0>         0.1243
     48 H18         2.2632    5.3739   -0.9061 H         1 <0>         0.1287
     49 H19         0.4509    4.6782   -7.1361 H         1 <0>         0.1730
     50 H20         0.0453    4.2852   -3.3944 H         1 <0>         0.1465
     51 H21        -1.9390    3.3615   -2.2780 H         1 <0>         0.1296
     52 H22        -3.8956    2.9547   -6.0600 H         1 <0>         0.1363
     53 H23        -1.9231    3.8866   -7.1902 H         1 <0>         0.1390
     54 H24        -5.0125    2.0329   -1.6870 H         1 <0>         0.1050
     55 H25        -3.9147    3.4525   -1.6086 H         1 <0>         0.0584
     56 H26        -3.2341    1.7993   -1.7834 H         1 <0>         0.0584
@<TRIPOS>BOND
     1    1    2 1
     2    1   34 1
     3    1   35 1
     4    1   36 1
     5    2    7 ar
     6    2    3 ar
     7    3    4 ar
     8    3   37 1
     9    4    5 ar
    10    4   38 1
    11    5   17 1
    12    5    6 ar
    13    6    7 ar
    14    6    8 1
    15    7   39 1
    16    8    9 1
    17    8   13 1
    18    8   10 1
    19   10   11 2
    20   10   40 1
    21   11   12 1
    22   11   41 1
    23   12   13 1
    24   12   42 1
    25   12   43 1
    26   13   14 1
    27   13   15 1
    28   15   16 1
    29   15   17 1
    30   15   18 1
    31   17   44 1
    32   18   23 ar
    33   18   19 ar
    34   19   20 ar
    35   19   45 1
    36   20   21 ar
    37   20   46 1
    38   21   22 ar
    39   21   24 1
    40   22   23 ar
    41   22   47 1
    42   23   48 1
    43   24   25 2
    44   25   26 1
    45   25   49 1
    46   26   31 ar
    47   26   27 ar
    48   27   28 ar
    49   27   50 1
    50   28   29 ar
    51   28   51 1
    52   29   30 ar
    53   29   32 1
    54   30   31 ar
    55   30   52 1
    56   31   53 1
    57   32   33 1
    58   33   54 1
    59   33   55 1
    60   33   56 1
@<TRIPOS>MOLECULE
ZINC15016539
   35    37     0     0     0
SMALL
USER_CHARGES

@<TRIPOS>ATOM
      1 C1         -0.0184    1.5028    0.0103 C.3       1 <0>        -0.1223
      2 C2          0.0021   -0.0041    0.0020 C.ar      1 <0>        -0.0775
      3 C3          0.0057   -0.6862   -1.2019 C.ar      1 <0>        -0.0892
      4 C4          0.0249   -2.0651   -1.2172 C.ar      1 <0>        -0.0893
      5 C5          0.0406   -2.7741   -0.0135 C.ar      1 <0>         0.0966
      6 C6          0.0368   -2.0803    1.1983 C.ar      1 <0>        -0.1566
      7 C7          0.0229   -0.6996    1.1992 C.ar      1 <0>        -0.0181
      8 Cl1         0.0248    0.1658    2.7040 Cl        1 <0>        -0.0569
      9 N1          0.0591   -4.1423   -0.0220 N.2       1 <0>        -0.4485
     10 C8          0.8769   -4.7933    0.7747 C.2       1 <0>         0.3696
     11 N2          1.7767   -4.2804    1.6833 N.am      1 <0>        -0.6885
     12 C9          2.5309   -5.0851    2.4127 C.2       1 <0>         0.5551
     13 O1          3.3308   -4.6493    3.2199 O.2       1 <0>        -0.4770
     14 C10         2.3583   -6.5357    2.2038 C.2       1 <0>        -0.2039
     15 C11         2.9913   -7.5739    2.8067 C.2       1 <0>         0.0548
     16 C12         2.6543   -8.9545    2.4361 C.ar      1 <0>        -0.1186
     17 C13         1.3151   -9.3676    2.3977 C.ar      1 <0>         0.1323
     18 C14         1.0084  -10.6681    2.0481 C.ar      1 <0>        -0.1462
     19 C15         2.0183  -11.5615    1.7370 C.ar      1 <0>        -0.0588
     20 C16         3.3429  -11.1619    1.7724 C.ar      1 <0>        -0.1192
     21 C17         3.6684   -9.8649    2.1134 C.ar      1 <0>         0.0155
     22 Cl2         5.3306   -9.3654    2.1497 Cl        1 <0>        -0.0378
     23 F1          0.3281   -8.4967    2.7021 F         1 <0>        -0.1113
     24 S1          1.0866   -6.5578    0.9485 S.3       1 <0>         0.1097
     25 H1          1.0042    1.8801    0.0026 H         1 <0>         0.0789
     26 H2         -0.5455    1.8639   -0.8728 H         1 <0>         0.0751
     27 H3         -0.5286    1.8543    0.9071 H         1 <0>         0.0756
     28 H4         -0.0068   -0.1373   -2.1320 H         1 <0>         0.1427
     29 H5          0.0273   -2.5958   -2.1578 H         1 <0>         0.1414
     30 H6          0.0485   -2.6222    2.1325 H         1 <0>         0.1324
     31 H7          1.8579   -3.3196    1.7887 H         1 <0>         0.4194
     32 H8          3.7428   -7.3847    3.5589 H         1 <0>         0.1702
     33 H9         -0.0224  -10.9888    2.0178 H         1 <0>         0.1513
     34 H10         1.7713  -12.5771    1.4652 H         1 <0>         0.1503
     35 H11         4.1242  -11.8663    1.5280 H         1 <0>         0.1491
@<TRIPOS>BOND
     1    1    2 1
     2    1   25 1
     3    1   26 1
     4    1   27 1
     5    2    7 ar
     6    2    3 ar
     7    3    4 ar
     8    3   28 1
     9    4    5 ar
    10    4   29 1
    11    5    6 ar
    12    5    9 1
    13    6    7 ar
    14    6   30 1
    15    7    8 1
    16    9   10 2
    17   10   24 1
    18   10   11 1
    19   11   12 am
    20   11   31 1
    21   12   13 2
    22   12   14 1
    23   14   15 2
    24   14   24 1
    25   15   16 1
    26   15   32 1
    27   16   21 ar
    28   16   17 ar
    29   17   18 ar
    30   17   23 1
    31   18   19 ar
    32   18   33 1
    33   19   20 ar
    34   19   34 1
    35   20   21 ar
    36   20   35 1
    37   21   22 1
@<TRIPOS>MOLECULE
ZINC13234622
   44    46     0     0     0
SMALL
USER_CHARGES
2-[(1R)-1-carboxypropyl]sulfanyl-3-[(2-chlorophenyl)methyl]-4-oxo-quinazoline-7-carboxylic acid
@<TRIPOS>ATOM
      1 C1          4.7307    4.9211   -1.7811 C.3       1 <0>        -0.1533
      2 C2          4.0913    5.1156   -0.4048 C.3       1 <0>        -0.0904
      3 C3          2.9923    4.0709   -0.2008 C.3       1 <0>        -0.1041
      4 H1          2.2793    4.1283   -1.0233 H         1 <0>         0.0981
      5 C4          2.2806    4.3379    1.1005 C.2       1 <0>         0.4710
      6 O1          1.0738    4.3896    1.1295 O.co2     1 <0>        -0.5887
      7 S1          3.7307    2.4190   -0.1567 S.3       1 <0>        -0.0218
      8 C5          2.2722    1.4341   -0.0696 C.2       1 <0>         0.3394
      9 N1          1.1100    2.0388   -0.0572 N.2       1 <0>        -0.4573
     10 C6         -0.0499    1.3437    0.0085 C.ar      1 <0>         0.1528
     11 C7         -1.2885    1.9912    0.0275 C.ar      1 <0>        -0.0552
     12 C8         -2.4527    1.2360    0.0904 C.ar      1 <0>        -0.0781
     13 C9         -2.3905   -0.1625    0.1462 C.ar      1 <0>        -0.0950
     14 C10        -1.1862   -0.8056    0.1335 C.ar      1 <0>        -0.0704
     15 C11        -0.0050   -0.0676    0.0650 C.ar      1 <0>        -0.2056
     16 C12         1.3140   -0.7200    0.0495 C.2       1 <0>         0.5582
     17 O2          1.4188   -1.9317    0.0962 O.2       1 <0>        -0.5285
     18 N2          2.4058    0.0761   -0.0182 N.am      1 <0>        -0.5322
     19 C13         3.7423   -0.5237   -0.0368 C.3       1 <0>         0.1330
     20 C14         4.1305   -0.8413   -1.4579 C.ar      1 <0>        -0.0747
     21 C15         3.3166   -0.4441   -2.5022 C.ar      1 <0>        -0.0879
     22 C16         3.6723   -0.7357   -3.8056 C.ar      1 <0>        -0.1066
     23 C17         4.8428   -1.4241   -4.0658 C.ar      1 <0>        -0.1133
     24 C18         5.6576   -1.8213   -3.0227 C.ar      1 <0>        -0.1097
     25 C19         5.3044   -1.5255   -1.7179 C.ar      1 <0>        -0.0271
     26 Cl1         6.3310   -2.0179   -0.4075 Cl        1 <0>        -0.0703
     27 C20        -3.7679    1.9137    0.1053 C.2       1 <0>         0.4918
     28 O3         -3.8269    3.1257    0.0571 O.co2     1 <0>        -0.6180
     29 H2          5.1627    3.9223   -1.8432 H         1 <0>         0.0563
     30 H3          3.9711    5.0372   -2.5543 H         1 <0>         0.0529
     31 H4          5.5137    5.6654   -1.9264 H         1 <0>         0.0497
     32 H5          3.6593    6.1143   -0.3427 H         1 <0>         0.0740
     33 H6          4.8509    4.9995    0.3683 H         1 <0>         0.0752
     34 H7         -1.3402    3.0691   -0.0149 H         1 <0>         0.1513
     35 H8         -3.3034   -0.7371    0.1994 H         1 <0>         0.1367
     36 H9         -1.1484   -1.8841    0.1769 H         1 <0>         0.1272
     37 H10         4.4610    0.1769    0.3882 H         1 <0>         0.1153
     38 H11         3.7372   -1.4410    0.5520 H         1 <0>         0.1137
     39 H12         2.4023    0.0940   -2.2996 H         1 <0>         0.1261
     40 H13         3.0358   -0.4255   -4.6211 H         1 <0>         0.1288
     41 H14         5.1206   -1.6511   -5.0845 H         1 <0>         0.1295
     42 H15         6.5720   -2.3587   -3.2261 H         1 <0>         0.1320
     43 O4          2.9875    4.5184    2.2272 O.co2     1 <0>        -0.7665
     44 O5         -4.8995    1.1864    0.1723 O.co2     1 <0>        -0.7582
@<TRIPOS>BOND
     1    1    2 1
     2    1   29 1
     3    1   30 1
     4    1   31 1
     5    2    3 1
     6    2   32 1
     7    2   33 1
     8    3    4 1
     9    3    5 1
    10    3    7 1
    11    5    6 2
    12    5   43 1
    13    7    8 1
    14    8   18 1
    15    8    9 2
    16    9   10 1
    17   10   15 ar
    18   10   11 ar
    19   11   12 ar
    20   11   34 1
    21   12   13 ar
    22   12   27 1
    23   13   14 ar
    24   13   35 1
    25   14   15 ar
    26   14   36 1
    27   15   16 1
    28   16   17 2
    29   16   18 am
    30   18   19 1
    31   19   20 1
    32   19   37 1
    33   19   38 1
    34   20   25 ar
    35   20   21 ar
    36   21   22 ar
    37   21   39 1
    38   22   23 ar
    39   22   40 1
    40   23   24 ar
    41   23   41 1
    42   24   25 ar
    43   24   42 1
    44   25   26 1
    45   27   28 2
    46   27   44 1
@<TRIPOS>MOLECULE
ZINC16909468
   40    42     0     0     0
SMALL
USER_CHARGES
(2R)-2-[3-[(E)-[2-[(2-bromophenyl)amino]-4-oxo-thiazol-5-ylidene]methyl]phenoxy]propanoic acid
@<TRIPOS>ATOM
      1 C1         -2.1669    1.4654    2.6567 C.3       1 <0>        -0.1568
      2 C2         -2.7509    1.3145    1.2506 C.3       1 <0>         0.0402
      3 H1         -3.0371    2.2866    0.8226 H         1 <0>         0.0720
      4 C3         -3.9397    0.3896    1.2970 C.2       1 <0>         0.4757
      5 O1         -3.9016   -0.6726    0.7223 O.co2     1 <0>        -0.6178
      6 O2         -5.0410    0.7456    1.9768 O.co2     1 <0>        -0.7589
      7 O3         -1.7582    0.7709    0.3782 O.3       1 <0>        -0.2942
      8 C4         -0.8905    1.6481   -0.1917 C.ar      1 <0>         0.1279
      9 C5          0.0268    1.2028   -1.1352 C.ar      1 <0>        -0.1502
     10 C6          0.9090    2.0904   -1.7241 C.ar      1 <0>        -0.0924
     11 C7          0.8885    3.4245   -1.3753 C.ar      1 <0>        -0.0904
     12 C8         -0.0275    3.8828   -0.4218 C.ar      1 <0>        -0.0254
     13 C9         -0.9180    2.9826    0.1723 C.ar      1 <0>        -0.1936
     14 C10        -0.0540    5.3041   -0.0467 C.2       1 <0>        -0.0035
     15 C11         1.1076    5.9829    0.1199 C.2       1 <0>        -0.1973
     16 C12         2.5045    5.4843    0.1459 C.2       1 <0>         0.5269
     17 O4          2.7688    4.3010    0.0065 O.2       1 <0>        -0.5114
     18 N1          3.4420    6.3884    0.3227 N.2       1 <0>        -0.7127
     19 C13         3.1685    7.6738    0.4824 C.2       1 <0>         0.4512
     20 S1          1.3865    7.7306    0.3779 S.3       1 <0>        -0.1265
     21 N2          4.0421    8.7108    0.6797 N.2       1 <0>        -0.5628
     22 C14         5.4208    8.4836    0.6255 C.ar      1 <0>         0.1864
     23 C15         5.9089    7.1879    0.5150 C.ar      1 <0>        -0.1869
     24 C16         7.2710    6.9668    0.4618 C.ar      1 <0>        -0.0945
     25 C17         8.1494    8.0336    0.5184 C.ar      1 <0>        -0.1767
     26 C18         7.6676    9.3249    0.6279 C.ar      1 <0>        -0.0844
     27 C19         6.3056    9.5539    0.6764 C.ar      1 <0>        -0.1142
     28 Br1         5.6470   11.3208    0.8184 Br        1 <0>        -0.0725
     29 H2         -1.2991    2.1405    2.6228 H         1 <0>         0.0537
     30 H3         -1.8506    0.4802    3.0300 H         1 <0>         0.0596
     31 H4         -2.9311    1.8839    3.3281 H         1 <0>         0.0756
     32 H5          0.0482    0.1595   -1.4133 H         1 <0>         0.1236
     33 H6          1.6162    1.7375   -2.4601 H         1 <0>         0.1208
     34 H7          1.5783    4.1149   -1.8378 H         1 <0>         0.1183
     35 H8         -1.6276    3.3288    0.9093 H         1 <0>         0.1296
     36 H9         -1.0163    5.8167    0.0988 H         1 <0>         0.1353
     37 H10         5.2238    6.3542    0.4704 H         1 <0>         0.1873
     38 H11         7.6509    5.9595    0.3755 H         1 <0>         0.1112
     39 H12         9.2141    7.8576    0.4766 H         1 <0>         0.1113
     40 H13         8.3562   10.1558    0.6715 H         1 <0>         0.1166
@<TRIPOS>BOND
     1    1    2 1
     2    1   29 1
     3    1   30 1
     4    1   31 1
     5    2    3 1
     6    2    4 1
     7    2    7 1
     8    4    5 2
     9    4    6 1
    10    7    8 1
    11    8   13 ar
    12    8    9 ar
    13    9   10 ar
    14    9   32 1
    15   10   11 ar
    16   10   33 1
    17   11   12 ar
    18   11   34 1
    19   12   13 ar
    20   12   14 1
    21   13   35 1
    22   14   15 2
    23   14   36 1
    24   15   20 1
    25   15   16 1
    26   16   17 2
    27   16   18 1
    28   18   19 2
    29   19   20 1
    30   19   21 1
    31   21   22 1
    32   22   27 ar
    33   22   23 ar
    34   23   24 ar
    35   23   37 1
    36   24   25 ar
    37   24   38 1
    38   25   26 ar
    39   25   39 1
    40   26   27 ar
    41   26   40 1
    42   27   28 1
@<TRIPOS>MOLECULE
ZINC36048654
   45    47     0     0     0
SMALL
USER_CHARGES

@<TRIPOS>ATOM
      1 C1          0.0522    1.5314    0.2839 C.3       1 <0>        -0.0831
      2 C2          0.0252    0.0271    0.1975 C.2       1 <0>         0.2919
      3 C3         -1.1724   -0.6251    0.1781 C.2       1 <0>        -0.4115
      4 C4         -1.1538   -2.1356    0.0906 C.3       1 <0>         0.2661
      5 H1         -1.6835   -2.5293    0.9581 H         1 <0>         0.0670
      6 N1          0.1798   -2.7880    0.0327 N.pl3     1 <0>        -0.5012
      7 C5          0.4575   -4.1248   -0.0492 C.2       1 <0>         0.2204
      8 C6          1.8708   -4.5095   -0.0932 C.2       1 <0>        -0.5012
      9 S1          2.6695   -3.0334   -0.0199 S.3       1 <0>         0.1839
     10 C7          1.2638   -1.9473    0.0647 C.2       1 <0>         0.2867
     11 N2          1.1693   -0.6479    0.1357 N.2       1 <0>        -0.6058
     12 C8         -0.5471   -5.0679   -0.0880 C.2       1 <0>        -0.4384
     13 C9         -0.2276   -6.4460   -0.0194 C.2       1 <0>         0.4937
     14 O1          1.0290   -6.8286    0.2140 O.co2     1 <0>        -0.7461
     15 O2         -1.1833   -7.3615   -0.1882 O.co2     1 <0>        -0.7841
     16 C10        -1.9222   -2.5396   -1.1412 C.ar      1 <0>        -0.0541
     17 C11        -1.3660   -2.3566   -2.3935 C.ar      1 <0>        -0.0801
     18 C12        -2.0703   -2.7269   -3.5236 C.ar      1 <0>        -0.1168
     19 C13        -3.3321   -3.2808   -3.4014 C.ar      1 <0>        -0.0349
     20 C14        -3.8883   -3.4637   -2.1479 C.ar      1 <0>        -0.1145
     21 C15        -3.1807   -3.0982   -1.0182 C.ar      1 <0>        -0.0592
     22 Cl1        -4.2176   -3.7457   -4.8204 Cl        1 <0>        -0.0985
     23 C16        -2.3914    0.0868    0.2381 C.2       1 <0>         0.5355
     24 O3         -2.3837    1.3017    0.3086 O.2       1 <0>        -0.5671
     25 O4         -3.5646   -0.5807    0.2174 O.3       1 <0>        -0.3453
     26 C17        -4.7579    0.2027    0.2813 C.3       1 <0>         0.0744
     27 C18        -5.9770   -0.7211    0.2464 C.3       1 <0>         0.0631
     28 O5         -5.9939   -1.5322    1.4228 O.3       1 <0>        -0.3792
     29 C19        -7.0985   -2.4362    1.4897 C.3       1 <0>         0.0315
     30 H2          1.0861    1.8768    0.2833 H         1 <0>         0.0553
     31 H3         -0.4726    1.9540   -0.5728 H         1 <0>         0.0772
     32 H4         -0.4372    1.8513    1.2038 H         1 <0>         0.0775
     33 H5          2.2954   -5.5004   -0.1570 H         1 <0>         0.2115
     34 H6         -1.5777   -4.7560   -0.1707 H         1 <0>         0.0751
     35 H7         -0.3811   -1.9238   -2.4888 H         1 <0>         0.1157
     36 H8         -1.6358   -2.5835   -4.5019 H         1 <0>         0.1225
     37 H9         -4.8734   -3.8958   -2.0518 H         1 <0>         0.1229
     38 H10        -3.6128   -3.2453   -0.0394 H         1 <0>         0.1289
     39 H11        -4.7652    0.7791    1.2064 H         1 <0>         0.0645
     40 H12        -4.7925    0.8822   -0.5703 H         1 <0>         0.0713
     41 H13        -6.8863   -0.1214    0.2054 H         1 <0>         0.0605
     42 H14        -5.9234   -1.3603   -0.6349 H         1 <0>         0.0611
     43 H15        -7.0390   -3.0151    2.4114 H         1 <0>         0.0850
     44 H16        -8.0311   -1.8721    1.4746 H         1 <0>         0.0343
     45 H17        -7.0682   -3.1110    0.6342 H         1 <0>         0.0434
@<TRIPOS>BOND
     1    1    2 1
     2    1   30 1
     3    1   31 1
     4    1   32 1
     5    2   11 1
     6    2    3 2
     7    3    4 1
     8    3   23 1
     9    4    5 1
    10    4    6 1
    11    4   16 1
    12    6   10 1
    13    6    7 1
    14    7    8 2
    15    7   12 1
    16    8    9 1
    17    8   33 1
    18    9   10 1
    19   10   11 2
    20   12   13 2
    21   12   34 1
    22   13   14 1
    23   13   15 1
    24   16   21 ar
    25   16   17 ar
    26   17   18 ar
    27   17   35 1
    28   18   19 ar
    29   18   36 1
    30   19   20 ar
    31   19   22 1
    32   20   21 ar
    33   20   37 1
    34   21   38 1
    35   23   24 2
    36   23   25 1
    37   25   26 1
    38   26   27 1
    39   26   39 1
    40   26   40 1
    41   27   28 1
    42   27   41 1
    43   27   42 1
    44   28   29 1
    45   29   43 1
    46   29   44 1
    47   29   45 1
@<TRIPOS>MOLECULE
ZINC13213656
   49    52     0     0     0
SMALL
USER_CHARGES

@<TRIPOS>ATOM
      1 C1         -0.1939    0.8513   -0.2833 C.3       1 <0>        -0.0918
      2 C2         -0.1659   -0.6351   -0.0363 C.2       1 <0>        -0.1501
      3 C3         -0.3269   -1.5233   -1.0831 C.2       1 <0>        -0.1437
      4 C4         -0.2966   -2.8540   -0.8266 C.2       1 <0>        -0.2080
      5 S1         -0.0339   -2.8839    0.9390 S.3       1 <0>         0.0718
      6 C5          0.0233   -1.1210    1.2149 C.2       1 <0>        -0.1034
      7 C6          0.2273   -0.3684    2.5045 C.3       1 <0>         0.3017
      8 H1          0.4135    0.6855    2.2975 H         1 <0>         0.0865
      9 C7         -0.9873   -0.5171    3.3907 C.2       1 <0>        -0.5065
     10 C8         -0.5695   -1.1215    4.5276 C.2       1 <0>         0.2751
     11 C9          0.8815   -1.3824    4.4337 C.2       1 <0>         0.5012
     12 O1          1.5514   -1.9149    5.2964 O.2       1 <0>        -0.4938
     13 N1          1.3527   -0.9426    3.2513 N.am      1 <0>        -0.5521
     14 C10         2.6776   -1.0200    2.8119 C.ar      1 <0>         0.1642
     15 C11         3.0261   -0.5190    1.5624 C.ar      1 <0>        -0.1650
     16 C12         4.3346   -0.5924    1.1231 C.ar      1 <0>        -0.1168
     17 C13         5.3047   -1.1633    1.9212 C.ar      1 <0>        -0.1178
     18 C14         4.9657   -1.6699    3.1785 C.ar      1 <0>        -0.1113
     19 C15         3.6448   -1.5908    3.6242 C.ar      1 <0>        -0.1192
     20 C16         6.0007   -2.2814    4.0341 C.2       1 <0>         0.5226
     21 O2          7.1577   -2.3457    3.6432 O.co2     1 <0>        -0.6980
     22 O3          5.7015   -2.7241    5.1341 O.co2     1 <0>        -0.6805
     23 O4         -1.3559   -1.4359    5.5827 O.3       1 <0>        -0.6490
     24 C17        -2.3547   -0.0890    3.0794 C.2       1 <0>         0.5066
     25 O5         -3.2348   -0.9178    2.9393 O.2       1 <0>        -0.4554
     26 C18        -2.6637    1.3468    2.9361 C.ar      1 <0>        -0.1658
     27 C19        -1.6738    2.3057    3.1697 C.ar      1 <0>        -0.0278
     28 C20        -1.9689    3.6444    3.0342 C.ar      1 <0>        -0.1747
     29 C21        -3.2437    4.0460    2.6676 C.ar      1 <0>        -0.0685
     30 C22        -4.2313    3.1096    2.4342 C.ar      1 <0>        -0.2308
     31 C23        -3.9506    1.7572    2.5592 C.ar      1 <0>         0.1662
     32 O6         -4.9181    0.8359    2.3240 O.3       1 <0>        -0.2813
     33 C24        -6.2045    1.3286    1.9440 C.3       1 <0>         0.0245
     34 H2          0.8250    1.2185   -0.4059 H         1 <0>         0.0630
     35 H3         -0.7661    1.0586   -1.1876 H         1 <0>         0.0567
     36 H4         -0.6609    1.3518    0.5649 H         1 <0>         0.0647
     37 H5         -0.4751   -1.1625   -2.0902 H         1 <0>         0.1216
     38 H6         -0.4039   -3.6814   -1.5124 H         1 <0>         0.1755
     39 H7          2.2715   -0.0712    0.9328 H         1 <0>         0.1154
     40 H8          4.5985   -0.2017    0.1514 H         1 <0>         0.1113
     41 H9          6.3258   -1.2190    1.5739 H         1 <0>         0.1205
     42 H10         3.3771   -1.9765    4.5968 H         1 <0>         0.1570
     43 H11        -0.6792    1.9975    3.4563 H         1 <0>         0.1407
     44 H12        -1.2034    4.3845    3.2149 H         1 <0>         0.1240
     45 H13        -3.4661    5.0977    2.5641 H         1 <0>         0.1195
     46 H14        -5.2223    3.4306    2.1491 H         1 <0>         0.1242
     47 H15        -6.8828    0.4899    1.7866 H         1 <0>         0.0962
     48 H16        -6.5961    1.9692    2.7341 H         1 <0>         0.0505
     49 H17        -6.1159    1.9023    1.0214 H         1 <0>         0.0498
@<TRIPOS>BOND
     1    1    2 1
     2    1   34 1
     3    1   35 1
     4    1   36 1
     5    2    6 2
     6    2    3 1
     7    3    4 2
     8    3   37 1
     9    4    5 1
    10    4   38 1
    11    5    6 1
    12    6    7 1
    13    7    8 1
    14    7   13 1
    15    7    9 1
    16    9   10 2
    17    9   24 1
    18   10   11 1
    19   10   23 1
    20   11   12 2
    21   11   13 am
    22   13   14 1
    23   14   19 ar
    24   14   15 ar
    25   15   16 ar
    26   15   39 1
    27   16   17 ar
    28   16   40 1
    29   17   18 ar
    30   17   41 1
    31   18   19 ar
    32   18   20 1
    33   19   42 1
    34   20   21 2
    35   20   22 1
    36   24   25 2
    37   24   26 1
    38   26   31 ar
    39   26   27 ar
    40   27   28 ar
    41   27   43 1
    42   28   29 ar
    43   28   44 1
    44   29   30 ar
    45   29   45 1
    46   30   31 ar
    47   30   46 1
    48   31   32 1
    49   32   33 1
    50   33   47 1
    51   33   48 1
    52   33   49 1
@<TRIPOS>MOLECULE
ZINC16919244
   51    53     0     0     0
SMALL
USER_CHARGES

@<TRIPOS>ATOM
      1 C1          0.0112    1.4728    1.4078 C.3       1 <0>        -0.1467
      2 C2         -0.0776    0.0723    0.7984 C.3       1 <0>        -0.0996
      3 C3         -1.5443   -0.2812    0.5442 C.3       1 <0>         0.0126
      4 H1         -2.0025    0.4913   -0.0734 H         1 <0>         0.0639
      5 C4         -1.6254   -1.6071   -0.1676 C.2       1 <0>         0.4794
      6 O1         -2.1411   -2.5645    0.3838 O.co2     1 <0>        -0.6674
      7 O2         -1.1754   -1.7224   -1.2948 O.co2     1 <0>        -0.6986
      8 O3         -2.2367   -0.3670    1.7913 O.3       1 <0>        -0.2827
      9 C5         -3.5780   -0.1533    1.7680 C.ar      1 <0>         0.1548
     10 C6         -4.2311    0.0146    0.5540 C.ar      1 <0>        -0.1764
     11 C7         -5.5908    0.2317    0.5235 C.ar      1 <0>        -0.0275
     12 C8         -6.3180    0.2834    1.7192 C.ar      1 <0>        -0.0864
     13 C9         -5.6581    0.1140    2.9427 C.ar      1 <0>        -0.1502
     14 C10        -4.2955   -0.1088    2.9629 C.ar      1 <0>         0.0674
     15 O4         -3.6522   -0.2798    4.1488 O.3       1 <0>        -0.3054
     16 C11        -4.4493   -0.2221    5.3334 C.3       1 <0>         0.0539
     17 C12        -3.5580   -0.4347    6.5587 C.3       1 <0>        -0.1477
     18 C13        -7.7675    0.5151    1.6902 C.2       1 <0>         0.0032
     19 C14        -8.5339   -0.0972    0.7522 C.2       1 <0>        -0.1969
     20 C15        -8.1772   -1.1547   -0.2224 C.2       1 <0>         0.5198
     21 O5         -7.0511   -1.6222   -0.2819 O.2       1 <0>        -0.4995
     22 N1         -9.1402   -1.5620   -1.0192 N.2       1 <0>        -0.7111
     23 C16       -10.3655   -1.0638   -0.9649 C.2       1 <0>         0.4561
     24 S1        -10.2605    0.1399    0.3505 S.3       1 <0>        -0.1541
     25 N2        -11.4531   -1.3949   -1.7300 N.2       1 <0>        -0.5875
     26 C17       -11.3998   -2.5076   -2.5779 C.ar      1 <0>         0.1656
     27 C18       -10.5098   -3.5404   -2.3137 C.ar      1 <0>        -0.1443
     28 C19       -10.4578   -4.6376   -3.1505 C.ar      1 <0>        -0.1227
     29 C20       -11.2943   -4.7083   -4.2549 C.ar      1 <0>         0.0336
     30 C21       -12.1837   -3.6771   -4.5195 C.ar      1 <0>        -0.1298
     31 C22       -12.2409   -2.5819   -3.6805 C.ar      1 <0>        -0.1365
     32 O6        -11.2422   -5.7889   -5.0787 O.3       1 <0>        -0.5032
     33 H2          1.0561    1.7247    1.5889 H         1 <0>         0.0462
     34 H3         -0.4229    2.1972    0.7186 H         1 <0>         0.0476
     35 H4         -0.5364    1.4945    2.3501 H         1 <0>         0.0573
     36 H5          0.4699    0.0506   -0.1438 H         1 <0>         0.0806
     37 H6          0.3565   -0.6521    1.4876 H         1 <0>         0.0643
     38 H7         -3.6712   -0.0248   -0.3687 H         1 <0>         0.1322
     39 H8         -6.0960    0.3622   -0.4221 H         1 <0>         0.1209
     40 H9         -6.2141    0.1530    3.8678 H         1 <0>         0.1260
     41 H10        -4.9315    0.7532    5.3997 H         1 <0>         0.0536
     42 H11        -5.2101   -1.0019    5.2978 H         1 <0>         0.0557
     43 H12        -4.1660   -0.3907    7.4623 H         1 <0>         0.0694
     44 H13        -3.0758   -1.4100    6.4923 H         1 <0>         0.0649
     45 H14        -2.7973    0.3451    6.5943 H         1 <0>         0.0621
     46 H15        -8.2238    1.1728    2.4151 H         1 <0>         0.1261
     47 H16        -9.8582   -3.4854   -1.4541 H         1 <0>         0.1426
     48 H17        -9.7654   -5.4407   -2.9453 H         1 <0>         0.1137
     49 H18       -12.8343   -3.7328   -5.3797 H         1 <0>         0.1138
     50 H19       -12.9365   -1.7812   -3.8841 H         1 <0>         0.1171
     51 H20       -11.8408   -6.5051   -4.8262 H         1 <0>         0.3699
@<TRIPOS>BOND
     1    1    2 1
     2    1   33 1
     3    1   34 1
     4    1   35 1
     5    2    3 1
     6    2   36 1
     7    2   37 1
     8    3    4 1
     9    3    5 1
    10    3    8 1
    11    5    6 2
    12    5    7 1
    13    8    9 1
    14    9   14 ar
    15    9   10 ar
    16   10   11 ar
    17   10   38 1
    18   11   12 ar
    19   11   39 1
    20   12   13 ar
    21   12   18 1
    22   13   14 ar
    23   13   40 1
    24   14   15 1
    25   15   16 1
    26   16   17 1
    27   16   41 1
    28   16   42 1
    29   17   43 1
    30   17   44 1
    31   17   45 1
    32   18   19 2
    33   18   46 1
    34   19   24 1
    35   19   20 1
    36   20   21 2
    37   20   22 1
    38   22   23 2
    39   23   24 1
    40   23   25 1
    41   25   26 1
    42   26   31 ar
    43   26   27 ar
    44   27   28 ar
    45   27   47 1
    46   28   29 ar
    47   28   48 1
    48   29   30 ar
    49   29   32 1
    50   30   31 ar
    51   30   49 1
    52   31   50 1
    53   32   51 1
@<TRIPOS>MOLECULE
ZINC10232844
   41    43     0     0     0
SMALL
USER_CHARGES
2-[5-[[5-(2,3-dichlorophenyl)-2-furyl]methylene]-4-oxo-2-thioxo-thiazolidin-3-yl]pentanedioic acid
@<TRIPOS>ATOM
      1 C1          3.1953    7.0720   -0.9128 C.ar      1 <0>        -0.0987
      2 C2          2.6874    5.7895   -0.9195 C.ar      1 <0>        -0.0727
      3 C3          3.1628    4.8480   -0.0034 C.ar      1 <0>         0.0025
      4 C4          4.1476    5.2151    0.9188 C.ar      1 <0>        -0.0106
      5 C5          4.6514    6.5015    0.9097 C.ar      1 <0>        -0.0329
      6 C6          4.1741    7.4282   -0.0020 C.ar      1 <0>        -0.0903
      7 Cl1         5.8796    6.9591    2.0479 Cl        1 <0>        -0.0478
      8 Cl2         4.7406    4.0560    2.0670 Cl        1 <0>        -0.0352
      9 C7          2.6240    3.4744   -0.0051 C.2       1 <0>         0.0286
     10 C8          3.3708    2.3183   -0.0182 C.2       1 <0>        -0.1702
     11 C9          2.4701    1.2501   -0.0148 C.2       1 <0>        -0.1539
     12 C10         1.1999    1.7980    0.0003 C.2       1 <0>         0.0119
     13 O1          1.3201    3.1421    0.0004 O.3       1 <0>        -0.1365
     14 C11        -0.0126    1.0758    0.0080 C.2       1 <0>         0.0537
     15 C12        -1.2039    1.7422    0.0172 C.2       1 <0>        -0.1849
     16 C13        -2.5349    1.2241    0.0207 C.2       1 <0>         0.5388
     17 O2         -2.7407    0.0236    0.0152 O.2       1 <0>        -0.4735
     18 N1         -3.5364    2.0865    0.0306 N.am      1 <0>        -0.4868
     19 C14        -3.3075    3.4184    0.0376 C.2       1 <0>         0.2897
     20 S1         -4.4407    4.7016    0.0512 S.2       1 <0>        -0.2564
     21 S2         -1.5230    3.5010    0.0363 S.3       1 <0>         0.0168
     22 C15        -4.9151    1.5912    0.0345 C.3       1 <0>         0.0673
     23 H1         -4.9097    0.5012    0.0281 H         1 <0>         0.1115
     24 C16        -5.6450    2.1048   -1.2083 C.3       1 <0>        -0.1058
     25 C17        -5.0031    1.5052   -2.4610 C.3       1 <0>        -0.1527
     26 C18        -5.7220    2.0111   -3.6850 C.2       1 <0>         0.4652
     27 O3         -6.6523    2.7730   -3.5675 O.co2     1 <0>        -0.6311
     28 C19        -5.6220    2.0828    1.2713 C.2       1 <0>         0.4788
     29 O4         -5.0344    2.7758    2.0678 O.co2     1 <0>        -0.6237
     30 H2          2.8280    7.8002   -1.6208 H         1 <0>         0.1475
     31 H3          1.9234    5.5139   -1.6313 H         1 <0>         0.1491
     32 H4          4.5677    8.4339   -0.0019 H         1 <0>         0.1457
     33 H5          4.4486    2.2498   -0.0285 H         1 <0>         0.1561
     34 H6          2.7179    0.1990   -0.0228 H         1 <0>         0.1636
     35 H7          0.0021   -0.0041    0.0020 H         1 <0>         0.1827
     36 H8         -6.6936    1.8109   -1.1612 H         1 <0>         0.0931
     37 H9         -5.5738    3.1917   -1.2482 H         1 <0>         0.0927
     38 H10        -3.9545    1.7991   -2.5081 H         1 <0>         0.0438
     39 H11        -5.0743    0.4183   -2.4210 H         1 <0>         0.0601
     40 O5         -5.3287    1.6152   -4.9059 O.co2     1 <0>        -0.7893
     41 O6         -6.9044    1.7509    1.4880 O.co2     1 <0>        -0.7461
@<TRIPOS>BOND
     1    1    6 ar
     2    1    2 ar
     3    1   30 1
     4    2    3 ar
     5    2   31 1
     6    3    4 ar
     7    3    9 1
     8    4    5 ar
     9    4    8 1
    10    5    6 ar
    11    5    7 1
    12    6   32 1
    13    9   13 1
    14    9   10 2
    15   10   11 1
    16   10   33 1
    17   11   12 2
    18   11   34 1
    19   12   13 1
    20   12   14 1
    21   14   15 2
    22   14   35 1
    23   15   21 1
    24   15   16 1
    25   16   17 2
    26   16   18 am
    27   18   19 1
    28   18   22 1
    29   19   20 2
    30   19   21 1
    31   22   23 1
    32   22   24 1
    33   22   28 1
    34   24   25 1
    35   24   36 1
    36   24   37 1
    37   25   26 1
    38   25   38 1
    39   25   39 1
    40   26   27 2
    41   26   40 1
    42   28   29 2
    43   28   41 1
@<TRIPOS>MOLECULE
ZINC19898748
   55    57     0     0     0
SMALL
USER_CHARGES
6-[(5S)-3-hydroxy-4-(4-nitrobenzoyl)-2-oxo-5-(p-tolyl)-5H-pyrrol-1-yl]hexanoic acid
@<TRIPOS>ATOM
      1 C1          1.8191    3.9568   -1.6971 C.3       1 <0>        -0.1095
      2 C2          1.6625    2.5126   -1.2961 C.ar      1 <0>        -0.1010
      3 C3          0.4058    2.0010   -1.0321 C.ar      1 <0>        -0.1218
      4 C4          0.2621    0.6761   -0.6646 C.ar      1 <0>        -0.1135
      5 C5          1.3751   -0.1371   -0.5611 C.ar      1 <0>        -0.0751
      6 C6          2.6318    0.3744   -0.8256 C.ar      1 <0>        -0.0863
      7 C7          2.7754    1.6990   -1.1940 C.ar      1 <0>        -0.1214
      8 C8          1.2186   -1.5811   -0.1596 C.3       1 <0>         0.2619
      9 H1          0.2436   -1.6967    0.3365 H         1 <0>         0.0688
     10 C9          1.3514   -2.4745   -1.3708 C.2       1 <0>        -0.5082
     11 C10         2.4110   -3.2856   -1.1436 C.2       1 <0>         0.2748
     12 C11         2.9922   -2.9664    0.1777 C.2       1 <0>         0.5094
     13 O1          3.9552   -3.5213    0.6683 O.2       1 <0>        -0.5314
     14 N1          2.2966   -1.9696    0.7574 N.am      1 <0>        -0.6081
     15 C12         2.5677   -1.3768    2.0694 C.3       1 <0>         0.1357
     16 C13         1.7882   -2.1378    3.1438 C.3       1 <0>        -0.1351
     17 C14         2.0714   -1.5187    4.5140 C.3       1 <0>        -0.1148
     18 C15         1.2919   -2.2796    5.5883 C.3       1 <0>        -0.0976
     19 C16         1.5750   -1.6606    6.9585 C.3       1 <0>        -0.1570
     20 C17         0.8072   -2.4101    8.0168 C.2       1 <0>         0.4582
     21 O2          0.1056   -3.3436    7.7068 O.co2     1 <0>        -0.6408
     22 O3          0.9029   -2.0406    9.3036 O.co2     1 <0>        -0.7853
     23 O4          2.8658   -4.2371   -1.9909 O.3       1 <0>        -0.6502
     24 C18         0.4975   -2.4647   -2.5622 C.2       1 <0>         0.5003
     25 O5          0.9658   -2.1631   -3.6439 O.2       1 <0>        -0.4605
     26 C19        -0.9330   -2.8212   -2.4495 C.ar      1 <0>        -0.0790
     27 C20        -1.4465   -3.2863   -1.2369 C.ar      1 <0>        -0.0653
     28 C21        -2.7830   -3.6126   -1.1374 C.ar      1 <0>        -0.0659
     29 C22        -3.6122   -3.4900   -2.2385 C.ar      1 <0>        -0.0391
     30 C23        -3.1088   -3.0348   -3.4446 C.ar      1 <0>        -0.0696
     31 C24        -1.7755   -2.7000   -3.5567 C.ar      1 <0>        -0.0797
     32 N2         -5.0441   -3.8479   -2.1259 N.pl3     1 <0>         0.0321
     33 O6         -5.7763   -3.7415   -3.0934 O.2       1 <0>        -0.1719
     34 O7         -5.4901   -4.2488   -1.0658 O.3       1 <0>        -0.1621
     35 H2          0.8309    4.4391   -1.7238 H         1 <0>         0.0599
     36 H3          2.2814    4.0125   -2.6937 H         1 <0>         0.0637
     37 H4          2.4594    4.4728   -0.9665 H         1 <0>         0.0640
     38 H5         -0.4643    2.6351   -1.1173 H         1 <0>         0.1149
     39 H6         -0.7198    0.2765   -0.4580 H         1 <0>         0.1170
     40 H7          3.5015   -0.2607   -0.7441 H         1 <0>         0.1169
     41 H8          3.7573    2.0987   -1.4003 H         1 <0>         0.1149
     42 H9          3.6447   -1.4391    2.2844 H         1 <0>         0.0772
     43 H10         2.2547   -0.3223    2.0671 H         1 <0>         0.0739
     44 H11         0.7112   -2.0754    2.9287 H         1 <0>         0.0636
     45 H12         2.1012   -3.1923    3.1461 H         1 <0>         0.0669
     46 H13         3.1484   -1.5811    4.7290 H         1 <0>         0.0577
     47 H14         1.7585   -0.4641    4.5116 H         1 <0>         0.0565
     48 H15         0.2149   -2.2172    5.3732 H         1 <0>         0.0590
     49 H16         1.6048   -3.3342    5.5906 H         1 <0>         0.0597
     50 H17         2.6520   -1.7230    7.1736 H         1 <0>         0.0610
     51 H18         1.2621   -0.6061    6.9562 H         1 <0>         0.0606
     52 H19        -0.7996   -3.3863   -0.3779 H         1 <0>         0.1611
     53 H20        -3.1822   -3.9688   -0.1992 H         1 <0>         0.1563
     54 H21        -3.7614   -2.9419   -4.3001 H         1 <0>         0.1515
     55 H22        -1.3840   -2.3446   -4.4983 H         1 <0>         0.1527
@<TRIPOS>BOND
     1    1    2 1
     2    1   35 1
     3    1   36 1
     4    1   37 1
     5    2    7 ar
     6    2    3 ar
     7    3    4 ar
     8    3   38 1
     9    4    5 ar
    10    4   39 1
    11    5    6 ar
    12    5    8 1
    13    6    7 ar
    14    6   40 1
    15    7   41 1
    16    8    9 1
    17    8   14 1
    18    8   10 1
    19   10   11 2
    20   10   24 1
    21   11   12 1
    22   11   23 1
    23   12   13 2
    24   12   14 am
    25   14   15 1
    26   15   16 1
    27   15   42 1
    28   15   43 1
    29   16   17 1
    30   16   44 1
    31   16   45 1
    32   17   18 1
    33   17   46 1
    34   17   47 1
    35   18   19 1
    36   18   48 1
    37   18   49 1
    38   19   20 1
    39   19   50 1
    40   19   51 1
    41   20   21 2
    42   20   22 1
    43   24   25 2
    44   24   26 1
    45   26   31 ar
    46   26   27 ar
    47   27   28 ar
    48   27   52 1
    49   28   29 ar
    50   28   53 1
    51   29   30 ar
    52   29   32 1
    53   30   31 ar
    54   30   54 1
    55   31   55 1
    56   32   33 2
    57   32   34 1
@<TRIPOS>MOLECULE
ZINC13276800
   56    59     0     0     0
SMALL
USER_CHARGES

@<TRIPOS>ATOM
      1 C1          0.1743   -3.6344    2.4023 C.3       1 <0>        -0.1483
      2 C2          0.0719   -2.7803    1.1369 C.3       1 <0>        -0.1219
      3 C3          0.8475   -3.4537    0.0030 C.3       1 <0>         0.0585
      4 O1          0.7518   -2.6561   -1.1788 O.3       1 <0>        -0.3093
      5 C4          1.3907   -3.1163   -2.2876 C.ar      1 <0>         0.0925
      6 C5          2.0893   -4.3120   -2.2405 C.ar      1 <0>        -0.1778
      7 C6          2.7378   -4.7786   -3.3687 C.ar      1 <0>        -0.1073
      8 C7          2.6917   -4.0544   -4.5455 C.ar      1 <0>        -0.0646
      9 C8          1.9970   -2.8605   -4.5992 C.ar      1 <0>        -0.1153
     10 C9          1.3396   -2.3902   -3.4737 C.ar      1 <0>         0.0915
     11 O2          0.6507   -1.2189   -3.5264 O.3       1 <0>        -0.3099
     12 C10         0.6414   -0.5274   -4.7770 C.3       1 <0>         0.0292
     13 C11         3.4009   -4.5674   -5.7722 C.3       1 <0>         0.2528
     14 H1          3.8644   -5.5311   -5.5611 H         1 <0>         0.0762
     15 C12         2.4255   -4.7003   -6.9185 C.2       1 <0>        -0.4793
     16 C13         2.8660   -3.8781   -7.9035 C.2       1 <0>         0.2918
     17 C14         4.1016   -3.2017   -7.4532 C.2       1 <0>         0.5112
     18 O3          4.7381   -2.4023   -8.1105 O.2       1 <0>        -0.5198
     19 N1          4.4178   -3.6031   -6.2073 N.am      1 <0>        -0.5627
     20 C15         5.5194   -3.1762   -5.4593 C.ar      1 <0>         0.1530
     21 C16         6.6503   -3.9724   -5.3750 C.ar      1 <0>        -0.0661
     22 C17         7.7479   -3.5411   -4.6270 C.ar      1 <0>        -0.1250
     23 C18         7.6982   -2.3090   -3.9683 C.ar      1 <0>        -0.0755
     24 C19         6.5679   -1.5243   -4.0580 C.ar      1 <0>        -0.1267
     25 C20         5.4822   -1.9489   -4.8040 C.ar      1 <0>        -0.0281
     26 Cl1         4.0664   -0.9507   -4.9168 Cl        1 <0>        -0.0767
     27 C21         8.9552   -4.3827   -4.5319 C.2       1 <0>         0.5255
     28 O4          8.9963   -5.4604   -5.1087 O.co2     1 <0>        -0.6826
     29 O5          9.9153   -4.0030   -3.8763 O.co2     1 <0>        -0.6897
     30 O6          2.2710   -3.7051   -9.1047 O.3       1 <0>        -0.6059
     31 C22         1.2755   -5.5229   -6.9570 C.2       1 <0>         0.4516
     32 O7          0.5176   -5.4625   -7.9032 O.2       1 <0>        -0.5127
     33 C23         0.9912   -6.4742   -5.8234 C.3       1 <0>        -0.1937
     34 C24         0.4943   -7.8755   -6.1848 C.3       1 <0>        -0.1623
     35 C25        -0.4687   -6.8569   -5.5715 C.3       1 <0>        -0.1627
     36 H2         -0.2470   -4.6210    2.2098 H         1 <0>         0.0562
     37 H3          1.2212   -3.7358    2.6884 H         1 <0>         0.0572
     38 H4         -0.3783   -3.1546    3.2101 H         1 <0>         0.0596
     39 H5         -0.9750   -2.6789    0.8508 H         1 <0>         0.0705
     40 H6          0.4932   -1.7937    1.3294 H         1 <0>         0.0712
     41 H7          1.8944   -3.5552    0.2891 H         1 <0>         0.0583
     42 H8          0.4262   -4.4404   -0.1895 H         1 <0>         0.0572
     43 H9          2.1274   -4.8793   -1.3223 H         1 <0>         0.1271
     44 H10         3.2819   -5.7108   -3.3306 H         1 <0>         0.1248
     45 H11         1.9628   -2.2965   -5.5196 H         1 <0>         0.1319
     46 H12         1.6637   -0.2791   -5.0624 H         1 <0>         0.0461
     47 H13         0.1954   -1.1642   -5.5409 H         1 <0>         0.0580
     48 H14         0.0582    0.3884   -4.6815 H         1 <0>         0.0944
     49 H15         6.6827   -4.9234   -5.8858 H         1 <0>         0.1381
     50 H16         8.5450   -1.9720   -3.3888 H         1 <0>         0.1351
     51 H17         6.5314   -0.5729   -3.5481 H         1 <0>         0.1259
     52 H18         1.6436   -6.3796   -4.9554 H         1 <0>         0.1121
     53 H19         0.3730   -8.1092   -7.2425 H         1 <0>         0.0943
     54 H20         0.8200   -8.7030   -5.5546 H         1 <0>         0.0897
     55 H21        -0.7765   -7.0143   -4.5378 H         1 <0>         0.0873
     56 H22        -1.2234   -6.4205   -6.2258 H         1 <0>         0.0952
@<TRIPOS>BOND
     1    1    2 1
     2    1   36 1
     3    1   37 1
     4    1   38 1
     5    2    3 1
     6    2   39 1
     7    2   40 1
     8    3    4 1
     9    3   41 1
    10    3   42 1
    11    4    5 1
    12    5   10 ar
    13    5    6 ar
    14    6    7 ar
    15    6   43 1
    16    7    8 ar
    17    7   44 1
    18    8    9 ar
    19    8   13 1
    20    9   10 ar
    21    9   45 1
    22   10   11 1
    23   11   12 1
    24   12   46 1
    25   12   47 1
    26   12   48 1
    27   13   14 1
    28   13   19 1
    29   13   15 1
    30   15   16 2
    31   15   31 1
    32   16   17 1
    33   16   30 1
    34   17   18 2
    35   17   19 am
    36   19   20 1
    37   20   25 ar
    38   20   21 ar
    39   21   22 ar
    40   21   49 1
    41   22   23 ar
    42   22   27 1
    43   23   24 ar
    44   23   50 1
    45   24   25 ar
    46   24   51 1
    47   25   26 1
    48   27   28 2
    49   27   29 1
    50   31   32 2
    51   31   33 1
    52   33   35 1
    53   33   34 1
    54   33   52 1
    55   34   35 1
    56   34   53 1
    57   34   54 1
    58   35   55 1
    59   35   56 1
@<TRIPOS>MOLECULE
ZINC13214448
   47    50     0     0     0
SMALL
USER_CHARGES

@<TRIPOS>ATOM
      1 C1         -0.3401    1.2963    0.7866 C.ar      1 <0>        -0.1099
      2 C2          0.7301    2.1711    0.7739 C.ar      1 <0>        -0.0603
      3 C3          1.8828    1.8430    0.0850 C.ar      1 <0>        -0.0571
      4 C4          1.9653    0.6400   -0.5908 C.ar      1 <0>        -0.0596
      5 C5          0.8954   -0.2352   -0.5773 C.ar      1 <0>        -0.0660
      6 C6         -0.2578    0.0935    0.1104 C.ar      1 <0>        -0.0216
      7 C7         -1.4246   -0.8601    0.1243 C.3       1 <0>         0.2586
      8 H1         -2.2420   -0.4432    0.7125 H         1 <0>         0.0822
      9 C8         -1.8878   -1.1349   -1.2874 C.2       1 <0>        -0.5110
     10 C9         -1.7430   -2.4651   -1.4939 C.2       1 <0>         0.2789
     11 C10        -1.1994   -3.0899   -0.2705 C.2       1 <0>         0.5164
     12 O1         -0.9566   -4.2735   -0.1408 O.2       1 <0>        -0.5121
     13 N1         -1.0120   -2.1544    0.6799 N.am      1 <0>        -0.5670
     14 C11        -0.5128   -2.3756    1.9672 C.ar      1 <0>         0.1477
     15 C12        -1.3758   -2.3951    3.0511 C.ar      1 <0>        -0.0663
     16 C13        -0.8721   -2.6170    4.3347 C.ar      1 <0>        -0.1229
     17 C14         0.4992   -2.8179    4.5172 C.ar      1 <0>        -0.0739
     18 C15         1.3498   -2.7962    3.4320 C.ar      1 <0>        -0.1248
     19 C16         0.8500   -2.5820    2.1592 C.ar      1 <0>        -0.0318
     20 Cl1         1.9278   -2.5635    0.7984 Cl        1 <0>        -0.0758
     21 C17        -1.7838   -2.6388    5.4937 C.2       1 <0>         0.5251
     22 O2         -2.9832   -2.4624    5.3317 O.co2     1 <0>        -0.6820
     23 O3         -1.3406   -2.8333    6.6168 O.co2     1 <0>        -0.6874
     24 O4         -2.0474   -3.1184   -2.6389 O.3       1 <0>        -0.6469
     25 C18        -2.3959   -0.1511   -2.2479 C.2       1 <0>         0.5085
     26 O5         -1.7638    0.0956   -3.2580 O.2       1 <0>        -0.4723
     27 C19        -3.6755    0.5408   -1.9897 C.ar      1 <0>        -0.1485
     28 C20        -4.4411    0.2044   -0.8703 C.ar      1 <0>        -0.0342
     29 C21        -5.6336    0.8534   -0.6341 C.ar      1 <0>        -0.1662
     30 C22        -6.0742    1.8388   -1.5050 C.ar      1 <0>         0.1072
     31 C23        -5.3185    2.1764   -2.6179 C.ar      1 <0>        -0.1714
     32 C24        -4.1217    1.5380   -2.8608 C.ar      1 <0>        -0.0480
     33 F1         -7.2440    2.4719   -1.2686 F         1 <0>        -0.1444
     34 N2          3.0285    2.7801    0.0705 N.pl3     1 <0>         0.0445
     35 O6          2.9561    3.8325    0.6613 O.2       1 <0>        -0.1756
     36 O7          4.0366    2.4932   -0.5320 O.3       1 <0>        -0.1746
     37 H2         -1.2390    1.5507    1.3286 H         1 <0>         0.1458
     38 H3          0.6656    3.1110    1.3019 H         1 <0>         0.1475
     39 H4          2.8656    0.3839   -1.1297 H         1 <0>         0.1446
     40 H5          0.9596   -1.1748   -1.1059 H         1 <0>         0.1435
     41 H6         -2.4342   -2.2389    2.9039 H         1 <0>         0.1397
     42 H7          0.8926   -2.9898    5.5082 H         1 <0>         0.1366
     43 H8          2.4089   -2.9512    3.5752 H         1 <0>         0.1276
     44 H9         -4.0992   -0.5630   -0.1916 H         1 <0>         0.1476
     45 H10        -6.2264    0.5940    0.2307 H         1 <0>         0.1386
     46 H11        -5.6665    2.9443   -3.2929 H         1 <0>         0.1326
     47 H12        -3.5317    1.8051   -3.7251 H         1 <0>         0.1382
@<TRIPOS>BOND
     1    1    6 ar
     2    1    2 ar
     3    1   37 1
     4    2    3 ar
     5    2   38 1
     6    3    4 ar
     7    3   34 1
     8    4    5 ar
     9    4   39 1
    10    5    6 ar
    11    5   40 1
    12    6    7 1
    13    7    8 1
    14    7   13 1
    15    7    9 1
    16    9   10 2
    17    9   25 1
    18   10   11 1
    19   10   24 1
    20   11   12 2
    21   11   13 am
    22   13   14 1
    23   14   19 ar
    24   14   15 ar
    25   15   16 ar
    26   15   41 1
    27   16   17 ar
    28   16   21 1
    29   17   18 ar
    30   17   42 1
    31   18   19 ar
    32   18   43 1
    33   19   20 1
    34   21   22 2
    35   21   23 1
    36   25   26 2
    37   25   27 1
    38   27   32 ar
    39   27   28 ar
    40   28   29 ar
    41   28   44 1
    42   29   30 ar
    43   29   45 1
    44   30   31 ar
    45   30   33 1
    46   31   32 ar
    47   31   46 1
    48   32   47 1
    49   34   35 2
    50   34   36 1
@<TRIPOS>MOLECULE
ZINC44530415
   66    68     0     0     0
SMALL
USER_CHARGES

@<TRIPOS>ATOM
      1 C1         -0.3413    1.7014    0.8156 C.3       1 <0>        -0.1625
      2 C2          0.1416    0.2659    0.5990 C.3       1 <0>        -0.0848
      3 H1          0.6559    0.1963   -0.3595 H         1 <0>         0.1389
      4 C3          1.1034   -0.1239    1.7233 C.3       1 <0>        -0.0593
      5 H2          0.7084    0.1994    2.6864 H         1 <0>         0.0726
      6 C4          1.3349   -1.6556    1.7248 C.3       1 <0>        -0.1036
      7 C5          2.8364   -1.8719    1.3912 C.3       1 <0>        -0.1223
      8 C6          3.2090   -0.5897    0.6387 C.3       1 <0>        -0.0735
      9 H3          2.8125   -0.6160   -0.3763 H         1 <0>         0.0819
     10 C7          2.4769    0.4932    1.4814 C.3       1 <0>        -0.0567
     11 C8          2.5097    1.7861    0.6904 C.3       1 <0>         0.1078
     12 H4          1.9446    2.5563    1.2152 H         1 <0>         0.0752
     13 C9          3.9831    2.2100    0.5681 C.3       1 <0>        -0.1325
     14 C10         4.8215    1.1218   -0.0936 C.3       1 <0>        -0.0817
     15 H5          4.4807    0.9892   -1.1204 H         1 <0>         0.1131
     16 C11         4.6847   -0.2386    0.6198 C.3       1 <0>        -0.0709
     17 H6          5.0535   -0.1433    1.6411 H         1 <0>         0.0646
     18 C12         5.4766   -1.3049   -0.1385 C.3       1 <0>        -0.0996
     19 C13         6.9533   -0.9067   -0.1831 C.3       1 <0>        -0.0916
     20 C14         7.0997    0.4387   -0.8964 C.3       1 <0>        -0.1439
     21 H7          6.7219    0.3526   -1.9152 H         1 <0>         0.1021
     22 C15         6.2941    1.5340   -0.1105 C.3       1 <0>         0.0102
     23 C16         6.8044    1.6629    1.3261 C.3       1 <0>        -0.1465
     24 C17         6.4394    2.8784   -0.8264 C.3       1 <0>        -0.1791
     25 C18         5.9824    2.7384   -2.2556 C.2       1 <0>         0.5009
     26 O1          5.4724    1.6974   -2.6334 O.co2     1 <0>        -0.6921
     27 O2          6.1227    3.6662   -3.0341 O.co2     1 <0>        -0.7286
     28 C19         8.5540    0.8325   -0.9318 C.2       1 <0>         0.5013
     29 O3          9.3613    0.1314   -1.5176 O.co2     1 <0>        -0.7266
     30 O4          8.9232    1.8522   -0.3746 O.co2     1 <0>        -0.6964
     31 O5          1.9534    1.5754   -0.6089 O.3       1 <0>        -0.3330
     32 C20         1.5134    2.6597   -1.2665 C.2       1 <0>         0.4630
     33 O6          1.6874    3.7608   -0.8005 O.2       1 <0>        -0.5147
     34 C21         0.8025    2.5037   -2.5860 C.3       1 <0>        -0.1490
     35 C22         3.1993    0.6862    2.8162 C.3       1 <0>        -0.1448
     36 C23        -1.0411   -0.6681    0.6034 C.2       1 <0>         0.4652
     37 O7         -1.1079   -1.5544    1.4218 O.2       1 <0>        -0.5035
     38 O8         -2.0203   -0.5152   -0.3019 O.3       1 <0>        -0.3547
     39 C24        -3.1112   -1.4362   -0.2393 C.3       1 <0>         0.0337
     40 H8          0.5129    2.3783    0.7999 H         1 <0>         0.0861
     41 H9         -1.0361    1.9747    0.0216 H         1 <0>         0.0636
     42 H10        -0.8446    1.7738    1.7797 H         1 <0>         0.0551
     43 H11         1.1070   -2.0674    2.7079 H         1 <0>         0.0589
     44 H12         0.7112   -2.1290    0.9665 H         1 <0>         0.0670
     45 H13         3.4243   -1.9680    2.3040 H         1 <0>         0.0634
     46 H14         2.9676   -2.7456    0.7529 H         1 <0>         0.0612
     47 H15         4.0440    3.1198   -0.0291 H         1 <0>         0.0710
     48 H16         4.3802    2.4106    1.5632 H         1 <0>         0.0684
     49 H17         5.3739   -2.2638    0.3696 H         1 <0>         0.0381
     50 H18         5.0920   -1.3890   -1.1549 H         1 <0>         0.0576
     51 H19         7.3375   -0.8224    0.8335 H         1 <0>         0.0401
     52 H20         7.5182   -1.6669   -0.7225 H         1 <0>         0.0469
     53 H21         6.7012    0.7049    1.8357 H         1 <0>         0.0298
     54 H22         7.8540    1.9568    1.3139 H         1 <0>         0.0834
     55 H23         6.2215    2.4189    1.8523 H         1 <0>         0.0218
     56 H24         5.8287    3.6268   -0.3213 H         1 <0>         0.0295
     57 H25         7.4840    3.1890   -0.8077 H         1 <0>         0.0897
     58 H26        -0.2685    2.3998   -2.4117 H         1 <0>         0.0953
     59 H27         0.9864    3.3826   -3.2040 H         1 <0>         0.0991
     60 H28         1.1752    1.6159   -3.0969 H         1 <0>         0.0957
     61 H29         3.2961   -0.2758    3.3194 H         1 <0>         0.0621
     62 H30         4.1901    1.1033    2.6361 H         1 <0>         0.0807
     63 H31         2.6265    1.3687    3.4440 H         1 <0>         0.0475
     64 H32        -2.7385   -2.4509   -0.3794 H         1 <0>         0.0577
     65 H33        -3.5969   -1.3586    0.7334 H         1 <0>         0.0551
     66 H34        -3.8302   -1.2016   -1.0242 H         1 <0>         0.0967
@<TRIPOS>BOND
     1    1    2 1
     2    1   40 1
     3    1   41 1
     4    1   42 1
     5    2    3 1
     6    2    4 1
     7    2   36 1
     8    4    5 1
     9    4   10 1
    10    4    6 1
    11    6    7 1
    12    6   43 1
    13    6   44 1
    14    7    8 1
    15    7   45 1
    16    7   46 1
    17    8    9 1
    18    8   16 1
    19    8   10 1
    20   10   11 1
    21   10   35 1
    22   11   12 1
    23   11   13 1
    24   11   31 1
    25   13   14 1
    26   13   47 1
    27   13   48 1
    28   14   15 1
    29   14   22 1
    30   14   16 1
    31   16   17 1
    32   16   18 1
    33   18   19 1
    34   18   49 1
    35   18   50 1
    36   19   20 1
    37   19   51 1
    38   19   52 1
    39   20   21 1
    40   20   22 1
    41   20   28 1
    42   22   23 1
    43   22   24 1
    44   23   53 1
    45   23   54 1
    46   23   55 1
    47   24   25 1
    48   24   56 1
    49   24   57 1
    50   25   26 2
    51   25   27 1
    52   28   29 2
    53   28   30 1
    54   31   32 1
    55   32   33 2
    56   32   34 1
    57   34   58 1
    58   34   59 1
    59   34   60 1
    60   35   61 1
    61   35   62 1
    62   35   63 1
    63   36   37 2
    64   36   38 1
    65   38   39 1
    66   39   64 1
    67   39   65 1
    68   39   66 1
@<TRIPOS>MOLECULE
ZINC13073953
   43    45     0     0     0
SMALL
USER_CHARGES
(2R)-2-[(5E)-5-[[5-(2,3-dichlorophenyl)-2-furyl]methylene]-4-oxo-2-thioxo-thiazolidin-3-yl]-4-methylsulfanyl-butanoic acid
@<TRIPOS>ATOM
      1 C1          3.0801    3.8463   -1.0097 C.3       1 <0>        -0.1232
      2 S1          1.3243    3.4820   -0.7360 S.3       1 <0>        -0.2553
      3 C2          1.2857    1.6894   -0.4611 C.3       1 <0>        -0.0755
      4 C3         -0.1565    1.2422   -0.2139 C.3       1 <0>        -0.1135
      5 C4         -0.1890   -0.2697    0.0180 C.3       1 <0>         0.0802
      6 H1          0.2851   -0.7765   -0.8226 H         1 <0>         0.1161
      7 C5         -1.6193   -0.7287    0.1392 C.2       1 <0>         0.4745
      8 O1         -1.9969   -1.2681    1.1523 O.co2     1 <0>        -0.6110
      9 N1          0.5329   -0.5902    1.2518 N.am      1 <0>        -0.4942
     10 C6          1.5819   -1.3928    1.2025 C.2       1 <0>         0.5211
     11 O2          1.9576   -1.8701    0.1468 O.2       1 <0>        -0.4321
     12 C7          2.2643   -1.6800    2.4239 C.2       1 <0>        -0.2132
     13 C8          3.3605   -2.4636    2.6427 C.2       1 <0>         0.0792
     14 C9          4.0668   -3.0101    1.5499 C.2       1 <0>        -0.0161
     15 C10         5.1379   -3.8819    1.6308 C.2       1 <0>        -0.1460
     16 C11         5.5261   -4.1676    0.3194 C.2       1 <0>        -0.1938
     17 C12         4.6891   -3.4583   -0.5117 C.2       1 <0>         0.0453
     18 O3          3.8175   -2.7677    0.2460 O.3       1 <0>        -0.0847
     19 C13         4.7390   -3.4556   -1.9863 C.ar      1 <0>        -0.0086
     20 C14         5.9481   -3.2238   -2.6474 C.ar      1 <0>        -0.0779
     21 C15         5.9890   -3.2269   -4.0257 C.ar      1 <0>        -0.1084
     22 C16         4.8345   -3.4493   -4.7559 C.ar      1 <0>        -0.0884
     23 C17         3.6311   -3.6746   -4.1096 C.ar      1 <0>        -0.0362
     24 C18         3.5759   -3.6792   -2.7288 C.ar      1 <0>        -0.0107
     25 Cl1         2.0666   -3.9612   -1.9187 Cl        1 <0>        -0.0034
     26 Cl2         2.1891   -3.9524   -5.0353 Cl        1 <0>        -0.0385
     27 S2          1.2882   -0.7389    3.5888 S.3       1 <0>         0.0124
     28 C19         0.1131   -0.0653    2.4242 C.2       1 <0>         0.2972
     29 S3         -1.2097    0.9809    2.7187 S.2       1 <0>        -0.2765
     30 H2          3.6534    3.5533   -0.1302 H         1 <0>         0.0713
     31 H3          3.4356    3.2901   -1.8771 H         1 <0>         0.0726
     32 H4          3.2063    4.9144   -1.1864 H         1 <0>         0.0995
     33 H5          1.8967    1.4417    0.4069 H         1 <0>         0.0643
     34 H6          1.6789    1.1785   -1.3399 H         1 <0>         0.0791
     35 H7         -0.7675    1.4899   -1.0819 H         1 <0>         0.1040
     36 H8         -0.5497    1.7531    0.6650 H         1 <0>         0.1051
     37 H9          3.6872   -2.6653    3.6522 H         1 <0>         0.1772
     38 H10         5.5861   -4.2691    2.5339 H         1 <0>         0.1612
     39 H11         6.3327   -4.8184    0.0155 H         1 <0>         0.1560
     40 H12         6.8496   -3.0460   -2.0798 H         1 <0>         0.1428
     41 H13         6.9240   -3.0516   -4.5370 H         1 <0>         0.1442
     42 H14         4.8724   -3.4467   -5.8353 H         1 <0>         0.1451
     43 O4         -2.4739   -0.5382   -0.8782 O.co2     1 <0>        -0.7410
@<TRIPOS>BOND
     1    1    2 1
     2    1   30 1
     3    1   31 1
     4    1   32 1
     5    2    3 1
     6    3    4 1
     7    3   33 1
     8    3   34 1
     9    4    5 1
    10    4   35 1
    11    4   36 1
    12    5    6 1
    13    5    7 1
    14    5    9 1
    15    7    8 2
    16    7   43 1
    17    9   28 1
    18    9   10 am
    19   10   11 2
    20   10   12 1
    21   12   13 2
    22   12   27 1
    23   13   14 1
    24   13   37 1
    25   14   18 1
    26   14   15 2
    27   15   16 1
    28   15   38 1
    29   16   17 2
    30   16   39 1
    31   17   18 1
    32   17   19 1
    33   19   24 ar
    34   19   20 ar
    35   20   21 ar
    36   20   40 1
    37   21   22 ar
    38   21   41 1
    39   22   23 ar
    40   22   42 1
    41   23   24 ar
    42   23   26 1
    43   24   25 1
    44   27   28 1
    45   28   29 2
@<TRIPOS>MOLECULE
ZINC22229176
   45    47     0     0     0
SMALL
USER_CHARGES
(5Z)-5-[[3-chloro-4-[2-(4-chloro-3-methyl-phenoxy)ethoxy]-5-methoxy-phenyl]methylene]-2-thioxo-thiazolidin-4-one
@<TRIPOS>ATOM
      1 C1         -4.1763   14.8820   -0.2457 C.3       1 <0>        -0.1195
      2 C2         -2.8031   14.6017    0.3083 C.ar      1 <0>        -0.0351
      3 C3         -2.3705   13.2976    0.4543 C.ar      1 <0>        -0.1430
      4 C4         -1.1064   13.0402    0.9637 C.ar      1 <0>         0.1467
      5 C5         -0.2807   14.0930    1.3307 C.ar      1 <0>        -0.2068
      6 C6         -0.7147   15.3954    1.1783 C.ar      1 <0>        -0.0642
      7 C7         -1.9763   15.6503    0.6698 C.ar      1 <0>        -0.0799
      8 Cl1        -2.5218   17.2879    0.4849 Cl        1 <0>        -0.0730
      9 O1         -0.6793   11.7580    1.1085 O.3       1 <0>        -0.2972
     10 C8          0.6337   11.5676    1.6394 C.3       1 <0>         0.0613
     11 C9          0.9357   10.0704    1.7283 C.3       1 <0>         0.0633
     12 O2          0.9754    9.5135    0.4129 O.3       1 <0>        -0.3036
     13 C10         1.2342    8.1833    0.3137 C.ar      1 <0>         0.0691
     14 C11         2.5504    7.7380    0.1987 C.ar      1 <0>         0.1322
     15 C12         2.8172    6.3865    0.1036 C.ar      1 <0>        -0.1853
     16 C13         1.7619    5.4657    0.1106 C.ar      1 <0>        -0.0114
     17 C14         0.4429    5.9202    0.2259 C.ar      1 <0>        -0.1172
     18 C15         0.1865    7.2713    0.3267 C.ar      1 <0>        -0.0181
     19 Cl2        -1.4496    7.8339    0.4696 Cl        1 <0>        -0.0452
     20 C16         2.0386    4.0276    0.0036 C.2       1 <0>        -0.0145
     21 C17         3.2944    3.5974   -0.2807 C.2       1 <0>        -0.1804
     22 C18         3.8403    2.2254   -0.2876 C.2       1 <0>         0.5276
     23 O3          3.1500    1.2612   -0.0134 O.3       1 <0>        -0.4954
     24 N1          5.1171    2.0973   -0.6071 N.2       1 <0>        -0.6456
     25 C19         5.8796    3.1688   -0.9057 C.2       1 <0>         0.3763
     26 S1          7.5369    3.2085   -1.3334 S.2       1 <0>        -0.5567
     27 S2          4.7417    4.5360   -0.7496 S.3       1 <0>        -0.1515
     28 O4          3.5726    8.6349    0.1861 O.3       1 <0>        -0.3031
     29 C20         4.8958    8.1089    0.0657 C.3       1 <0>         0.0156
     30 H1         -4.6808   13.9314   -0.4734 H         1 <0>         0.0725
     31 H2         -4.0859   15.4787   -1.1654 H         1 <0>         0.0778
     32 H3         -4.7645   15.4405    0.4974 H         1 <0>         0.0772
     33 H4         -3.0164   12.4793    0.1723 H         1 <0>         0.1399
     34 H5          0.7022   13.8944    1.7317 H         1 <0>         0.1369
     35 H6         -0.0708   16.2153    1.4603 H         1 <0>         0.1349
     36 H7          1.3694   12.0516    0.9803 H         1 <0>         0.0787
     37 H8          0.6915   12.0136    2.6433 H         1 <0>         0.0840
     38 H9          1.9087    9.9212    2.2192 H         1 <0>         0.0808
     39 H10         0.1493    9.5718    2.3140 H         1 <0>         0.0675
     40 H11         3.8368    6.0407    0.0190 H         1 <0>         0.1642
     41 H12        -0.3734    5.2131    0.2355 H         1 <0>         0.1458
     42 H13         1.2284    3.2989    0.1538 H         1 <0>         0.1592
     43 H14         5.6209    8.9361    0.0685 H         1 <0>         0.1064
     44 H15         4.9831    7.5480   -0.8765 H         1 <0>         0.0667
     45 H16         5.1020    7.4377    0.9124 H         1 <0>         0.0621
@<TRIPOS>BOND
     1    1    2 1
     2    1   30 1
     3    1   31 1
     4    1   32 1
     5    2    7 ar
     6    2    3 ar
     7    3    4 ar
     8    3   33 1
     9    4    5 ar
    10    4    9 1
    11    5    6 ar
    12    5   34 1
    13    6    7 ar
    14    6   35 1
    15    7    8 1
    16    9   10 1
    17   10   11 1
    18   10   36 1
    19   10   37 1
    20   11   12 1
    21   11   38 1
    22   11   39 1
    23   12   13 1
    24   13   18 ar
    25   13   14 ar
    26   14   15 ar
    27   14   28 1
    28   15   16 ar
    29   15   40 1
    30   16   17 ar
    31   16   20 1
    32   17   18 ar
    33   17   41 1
    34   18   19 1
    35   20   21 2
    36   20   42 1
    37   21   27 1
    38   21   22 1
    39   22   23 1
    40   22   24 2
    41   24   25 1
    42   25   26 2
    43   25   27 1
    44   28   29 1
    45   29   43 1
    46   29   44 1
    47   29   45 1
@<TRIPOS>MOLECULE
ZINC13217137
   54    58     0     0     0
SMALL
USER_CHARGES

@<TRIPOS>ATOM
      1 C1         -0.0073    1.3371    0.0347 C.ar      1 <0>        -0.0909
      2 C2          1.1750    2.0504    0.0135 C.ar      1 <0>        -0.1535
      3 C3          2.3905    1.3776    0.0184 C.ar      1 <0>         0.1606
      4 C4          2.4120   -0.0111    0.0448 C.ar      1 <0>        -0.1516
      5 C5          1.2260   -0.7182    0.0659 C.ar      1 <0>        -0.0915
      6 C6          0.0178   -0.0454    0.0609 C.ar      1 <0>        -0.0521
      7 C7         -1.2744   -0.8204    0.0840 C.3       1 <0>        -0.1507
      8 C8         -1.7143   -1.1058   -1.3288 C.2       1 <0>         0.4959
      9 O1         -1.0410   -0.7161   -2.2675 O.co2     1 <0>        -0.6833
     10 O2         -2.7436   -1.7266   -1.5331 O.co2     1 <0>        -0.7132
     11 N1          3.5889    2.0964   -0.0035 N.am      1 <0>        -0.5449
     12 C9          4.9398    1.5229   -0.0072 C.3       1 <0>         0.2614
     13 H1          5.0816    0.9034   -0.8928 H         1 <0>         0.0778
     14 C10         5.8942    2.6940   -0.0343 C.2       1 <0>        -0.5027
     15 C11         5.1358    3.8156   -0.0445 C.2       1 <0>         0.2720
     16 C12         3.7080    3.4362   -0.0307 C.2       1 <0>         0.5069
     17 O3          2.7785    4.2188   -0.0399 O.2       1 <0>        -0.5140
     18 O4          5.6102    5.0823   -0.0685 O.3       1 <0>        -0.6516
     19 C13         7.3584    2.6284   -0.0469 C.2       1 <0>         0.5090
     20 O5          7.9945    3.0473    0.9022 O.2       1 <0>        -0.4719
     21 C14         8.0621    2.0538   -1.2120 C.ar      1 <0>        -0.1452
     22 C15         7.3446    1.6866   -2.3534 C.ar      1 <0>        -0.0347
     23 C16         8.0062    1.1516   -3.4374 C.ar      1 <0>        -0.1669
     24 C17         9.3816    0.9773   -3.3969 C.ar      1 <0>         0.1056
     25 C18        10.0987    1.3396   -2.2664 C.ar      1 <0>        -0.1711
     26 C19         9.4483    1.8810   -1.1788 C.ar      1 <0>        -0.0480
     27 F1         10.0251    0.4523   -4.4625 F         1 <0>        -0.1451
     28 C20         5.1583    0.7033    1.2384 C.ar      1 <0>        -0.0605
     29 C21         4.7610    1.1964    2.4674 C.ar      1 <0>        -0.0765
     30 C22         4.9609    0.4483    3.6120 C.ar      1 <0>        -0.1101
     31 C23         5.5606   -0.7997    3.5306 C.ar      1 <0>         0.0397
     32 C24         5.9578   -1.2964    2.2950 C.ar      1 <0>         0.0474
     33 C25         5.7504   -0.5422    1.1495 C.ar      1 <0>        -0.1071
     34 O6          6.5409   -2.5219    2.1916 O.3       1 <0>        -0.3077
     35 C26         7.0644   -3.0892    3.3974 C.3       1 <0>         0.0221
     36 C27         6.0136   -2.9216    4.5033 C.3       1 <0>         0.0213
     37 O7          5.7545   -1.5231    4.6671 O.3       1 <0>        -0.3107
     38 H2         -0.9525    1.8595    0.0353 H         1 <0>         0.1136
     39 H3          1.1548    3.1300   -0.0073 H         1 <0>         0.1447
     40 H4          3.3552   -0.5372    0.0483 H         1 <0>         0.1169
     41 H5          1.2420   -1.7979    0.0860 H         1 <0>         0.1121
     42 H6         -1.1248   -1.7605    0.6149 H         1 <0>         0.0635
     43 H7         -2.0405   -0.2344    0.5917 H         1 <0>         0.0641
     44 H8          6.2736    1.8215   -2.3859 H         1 <0>         0.1468
     45 H9          7.4526    0.8670   -4.3200 H         1 <0>         0.1370
     46 H10        11.1695    1.2015   -2.2402 H         1 <0>         0.1323
     47 H11        10.0083    2.1672   -0.3008 H         1 <0>         0.1383
     48 H12         4.2940    2.1679    2.5331 H         1 <0>         0.1270
     49 H13         4.6502    0.8360    4.5710 H         1 <0>         0.1299
     50 H14         6.0559   -0.9269    0.1877 H         1 <0>         0.1327
     51 H15         7.2722   -4.1484    3.2453 H         1 <0>         0.1152
     52 H16         7.9810   -2.5712    3.6797 H         1 <0>         0.0726
     53 H17         5.0951   -3.4346    4.2183 H         1 <0>         0.0745
     54 H18         6.3929   -3.3372    5.4368 H         1 <0>         0.1144
@<TRIPOS>BOND
     1    1    6 ar
     2    1    2 ar
     3    1   38 1
     4    2    3 ar
     5    2   39 1
     6    3    4 ar
     7    3   11 1
     8    4    5 ar
     9    4   40 1
    10    5    6 ar
    11    5   41 1
    12    6    7 1
    13    7    8 1
    14    7   42 1
    15    7   43 1
    16    8    9 2
    17    8   10 1
    18   11   16 am
    19   11   12 1
    20   12   13 1
    21   12   14 1
    22   12   28 1
    23   14   15 2
    24   14   19 1
    25   15   16 1
    26   15   18 1
    27   16   17 2
    28   19   20 2
    29   19   21 1
    30   21   26 ar
    31   21   22 ar
    32   22   23 ar
    33   22   44 1
    34   23   24 ar
    35   23   45 1
    36   24   25 ar
    37   24   27 1
    38   25   26 ar
    39   25   46 1
    40   26   47 1
    41   28   33 ar
    42   28   29 ar
    43   29   30 ar
    44   29   48 1
    45   30   31 ar
    46   30   49 1
    47   31   37 1
    48   31   32 ar
    49   32   33 ar
    50   32   34 1
    51   33   50 1
    52   34   35 1
    53   35   36 1
    54   35   51 1
    55   35   52 1
    56   36   37 1
    57   36   53 1
    58   36   54 1
@<TRIPOS>MOLECULE
ZINC40093540
   58    60     0     0     0
SMALL
USER_CHARGES

@<TRIPOS>ATOM
      1 C1         -0.2487    1.6236    0.3220 C.3       1 <0>        -0.1504
      2 C2         -0.2294    0.0942    0.2828 C.3       1 <0>        -0.1209
      3 C3          0.5515   -0.4371    1.4865 C.3       1 <0>        -0.1374
      4 C4          0.5707   -1.9664    1.4473 C.3       1 <0>         0.1353
      5 N1          1.3184   -2.4751    2.5999 N.am      1 <0>        -0.6131
      6 C5          2.7612   -2.7405    2.6446 C.3       1 <0>         0.2641
      7 H1          3.3172   -1.8221    2.4567 H         1 <0>         0.0734
      8 C6          3.0530   -3.2489    4.0371 C.2       1 <0>        -0.5047
      9 C7          1.8748   -3.2628    4.7027 C.2       1 <0>         0.2654
     10 C8          0.8050   -2.7761    3.8065 C.2       1 <0>         0.5112
     11 O1         -0.3655   -2.6668    4.1132 O.2       1 <0>        -0.5320
     12 O2          1.7040   -3.6555    5.9861 O.3       1 <0>        -0.6496
     13 C9          4.3607   -3.6498    4.5656 C.2       1 <0>         0.5061
     14 O3          4.5616   -4.8088    4.8777 O.2       1 <0>        -0.4758
     15 C10         5.4336   -2.6476    4.7191 C.ar      1 <0>        -0.1718
     16 C11         5.1715   -1.2965    4.4712 C.ar      1 <0>        -0.0286
     17 C12         6.1747   -0.3652    4.6155 C.ar      1 <0>        -0.2246
     18 C13         7.4476   -0.7664    5.0066 C.ar      1 <0>         0.1444
     19 C14         7.7123   -2.1086    5.2540 C.ar      1 <0>        -0.1360
     20 C15         6.7129   -3.0458    5.1181 C.ar      1 <0>        -0.0354
     21 C16         9.0936   -2.5376    5.6771 C.3       1 <0>        -0.0996
     22 O4          8.4340    0.1548    5.1468 O.3       1 <0>        -0.3069
     23 C17         8.1340    1.4929    4.7450 C.3       1 <0>         0.0718
     24 C18         7.6478    2.2921    5.9557 C.3       1 <0>        -0.1757
     25 C19         9.3929    2.1482    4.1734 C.3       1 <0>        -0.1499
     26 C20         3.1276   -3.7858    1.6227 C.ar      1 <0>        -0.0531
     27 C21         2.3527   -4.9231    1.4891 C.ar      1 <0>        -0.0720
     28 C22         2.6880   -5.8826    0.5527 C.ar      1 <0>        -0.0989
     29 C23         3.7992   -5.7052   -0.2521 C.ar      1 <0>        -0.0372
     30 C24         4.5748   -4.5662   -0.1188 C.ar      1 <0>        -0.0287
     31 C25         4.2348   -3.6043    0.8156 C.ar      1 <0>        -0.0957
     32 Cl1         5.9698   -4.3424   -1.1275 Cl        1 <0>        -0.0606
     33 Cl2         4.2211   -6.9105   -1.4282 Cl        1 <0>        -0.0627
     34 H2          0.7734    2.0008    0.2873 H         1 <0>         0.0527
     35 H3         -0.8050    2.0020   -0.5355 H         1 <0>         0.0513
     36 H4         -0.7281    1.9574    1.2422 H         1 <0>         0.0536
     37 H5         -1.2515   -0.2831    0.3175 H         1 <0>         0.0621
     38 H6          0.2500   -0.2397   -0.6374 H         1 <0>         0.0612
     39 H7          1.5735   -0.0598    1.4518 H         1 <0>         0.0644
     40 H8          0.0720   -0.1032    2.4067 H         1 <0>         0.0672
     41 H9         -0.4513   -2.3437    1.4820 H         1 <0>         0.0779
     42 H10         1.0502   -2.3003    0.5271 H         1 <0>         0.0733
     43 H11         4.1835   -0.9842    4.1668 H         1 <0>         0.1352
     44 H12         5.9732    0.6785    4.4243 H         1 <0>         0.1292
     45 H13         6.9182   -4.0877    5.3148 H         1 <0>         0.1350
     46 H14         9.1652   -2.5110    6.7644 H         1 <0>         0.0641
     47 H15         9.2829   -3.5517    5.3252 H         1 <0>         0.0632
     48 H16         9.8319   -1.8603    5.2477 H         1 <0>         0.0661
     49 H17         7.3546    1.4774    3.9831 H         1 <0>         0.0781
     50 H18         7.4189    3.3128    5.6492 H         1 <0>         0.0698
     51 H19         6.7510    1.8253    6.3629 H         1 <0>         0.0642
     52 H20         8.4272    2.3077    6.7176 H         1 <0>         0.0654
     53 H21         9.7393    1.5789    3.3109 H         1 <0>         0.0634
     54 H22         9.1640    3.1689    3.8669 H         1 <0>         0.0738
     55 H23        10.1723    2.1638    4.9353 H         1 <0>         0.0651
     56 H24         1.4852   -5.0618    2.1172 H         1 <0>         0.1343
     57 H25         2.0827   -6.7710    0.4494 H         1 <0>         0.1390
     58 H26         4.8371   -2.7136    0.9174 H         1 <0>         0.1394
@<TRIPOS>BOND
     1    1    2 1
     2    1   34 1
     3    1   35 1
     4    1   36 1
     5    2    3 1
     6    2   37 1
     7    2   38 1
     8    3    4 1
     9    3   39 1
    10    3   40 1
    11    4    5 1
    12    4   41 1
    13    4   42 1
    14    5   10 am
    15    5    6 1
    16    6    7 1
    17    6    8 1
    18    6   26 1
    19    8    9 2
    20    8   13 1
    21    9   10 1
    22    9   12 1
    23   10   11 2
    24   13   14 2
    25   13   15 1
    26   15   20 ar
    27   15   16 ar
    28   16   17 ar
    29   16   43 1
    30   17   18 ar
    31   17   44 1
    32   18   19 ar
    33   18   22 1
    34   19   20 ar
    35   19   21 1
    36   20   45 1
    37   21   46 1
    38   21   47 1
    39   21   48 1
    40   22   23 1
    41   23   24 1
    42   23   25 1
    43   23   49 1
    44   24   50 1
    45   24   51 1
    46   24   52 1
    47   25   53 1
    48   25   54 1
    49   25   55 1
    50   26   31 ar
    51   26   27 ar
    52   27   28 ar
    53   27   56 1
    54   28   29 ar
    55   28   57 1
    56   29   30 ar
    57   29   33 1
    58   30   31 ar
    59   30   32 1
    60   31   58 1
@<TRIPOS>MOLECULE
ZINC40567550
   45    47     0     0     0
SMALL
USER_CHARGES

@<TRIPOS>ATOM
      1 C1         -0.0225    1.8097    0.0120 C.3       1 <0>        -0.1225
      2 S1          0.0021   -0.0041    0.0020 S.3       1 <0>        -0.2616
      3 C2         -1.7518   -0.4668    0.0163 C.3       1 <0>        -0.0748
      4 C3         -1.8771   -1.9917    0.0093 C.3       1 <0>        -0.1167
      5 C4         -3.3564   -2.3820    0.0213 C.3       1 <0>         0.0548
      6 H1         -3.8661   -1.9002   -0.8131 H         1 <0>         0.1071
      7 C5         -3.4823   -3.8780   -0.1094 C.2       1 <0>         0.4976
      8 O1         -3.4997   -4.5778    0.8889 O.co2     1 <0>        -0.6392
      9 O2         -3.5667   -4.3886   -1.2133 O.co2     1 <0>        -0.6785
     10 N1         -3.9655   -1.9489    1.2813 N.am      1 <0>        -0.4950
     11 C6         -4.9791   -1.1002    1.2512 C.2       1 <0>         0.5387
     12 O3         -5.4202   -0.6686    0.2016 O.2       1 <0>        -0.4908
     13 C7         -5.5490   -0.7030    2.5515 C.2       1 <0>        -0.2157
     14 C8         -6.5826    0.1439    2.8255 C.2       1 <0>         0.0699
     15 C9         -6.9647    0.3820    4.1644 C.2       1 <0>        -0.0335
     16 C10        -7.9935    1.2090    4.5792 C.2       1 <0>        -0.1366
     17 C11        -8.0220    1.1501    5.9745 C.2       1 <0>        -0.2173
     18 C12        -7.0150    0.2937    6.3615 C.2       1 <0>         0.0926
     19 O4         -6.3933   -0.1623    5.2580 O.3       1 <0>        -0.1455
     20 C13        -6.6780   -0.0665    7.7500 C.ar      1 <0>        -0.0561
     21 C14        -7.4137    0.4733    8.8112 C.ar      1 <0>        -0.1016
     22 C15        -7.1015    0.1397   10.0977 C.ar      1 <0>        -0.0911
     23 C16        -6.0455   -0.7422   10.3554 C.ar      1 <0>        -0.1120
     24 C17        -5.3098   -1.2820    9.2940 C.ar      1 <0>        -0.0869
     25 C18        -5.6258   -0.9527    8.0073 C.ar      1 <0>        -0.1017
     26 C19        -5.7083   -1.1018   11.7432 C.2       1 <0>         0.5178
     27 O5         -6.3512   -0.6297   12.6709 O.co2     1 <0>        -0.6876
     28 O6         -4.7854   -1.8726   11.9684 O.co2     1 <0>        -0.6820
     29 S2         -4.5132   -1.6361    3.6704 S.3       1 <0>         0.0319
     30 C20        -3.4834   -2.4289    2.4459 C.2       1 <0>         0.2244
     31 S3         -2.1955   -3.5299    2.6908 S.2       1 <0>        -0.1831
     32 H2          1.0001    2.1870    0.0043 H         1 <0>         0.0984
     33 H3         -0.5497    2.1708   -0.8711 H         1 <0>         0.0724
     34 H4         -0.5327    2.1613    0.9088 H         1 <0>         0.0732
     35 H5         -2.2257   -0.0675    0.9130 H         1 <0>         0.0680
     36 H6         -2.2427   -0.0579   -0.8669 H         1 <0>         0.0786
     37 H7         -1.4032   -2.3910   -0.8874 H         1 <0>         0.0914
     38 H8         -1.3862   -2.4006    0.8924 H         1 <0>         0.1099
     39 H9         -7.1088    0.6325    2.0188 H         1 <0>         0.1747
     40 H10        -8.6486    1.7888    3.9459 H         1 <0>         0.1580
     41 H11        -8.7038    1.6764    6.6261 H         1 <0>         0.1562
     42 H12        -8.2282    1.1541    8.6123 H         1 <0>         0.1210
     43 H13        -7.6690    0.5566   10.9165 H         1 <0>         0.1327
     44 H14        -4.4950   -1.9625    9.4927 H         1 <0>         0.1341
     45 H15        -5.0612   -1.3729    7.1881 H         1 <0>         0.1262
@<TRIPOS>BOND
     1    1    2 1
     2    1   32 1
     3    1   33 1
     4    1   34 1
     5    2    3 1
     6    3    4 1
     7    3   35 1
     8    3   36 1
     9    4    5 1
    10    4   37 1
    11    4   38 1
    12    5    6 1
    13    5    7 1
    14    5   10 1
    15    7    8 2
    16    7    9 1
    17   10   30 1
    18   10   11 am
    19   11   12 2
    20   11   13 1
    21   13   14 2
    22   13   29 1
    23   14   15 1
    24   14   39 1
    25   15   19 1
    26   15   16 2
    27   16   17 1
    28   16   40 1
    29   17   18 2
    30   17   41 1
    31   18   19 1
    32   18   20 1
    33   20   25 ar
    34   20   21 ar
    35   21   22 ar
    36   21   42 1
    37   22   23 ar
    38   22   43 1
    39   23   24 ar
    40   23   26 1
    41   24   25 ar
    42   24   44 1
    43   25   45 1
    44   26   27 2
    45   26   28 1
    46   29   30 1
    47   30   31 2
@<TRIPOS>MOLECULE
ZINC13230698
   49    51     0     0     0
SMALL
USER_CHARGES
3-allyl-2-[2-[(5-carboxy-2-methyl-phenyl)amino]-2-oxo-ethyl]sulfanyl-4-oxo-quinazoline-7-carboxylic acid
@<TRIPOS>ATOM
      1 C1          2.3232    1.3202    1.2336 C.3       1 <0>        -0.1088
      2 C2          1.0976    1.9147    0.5889 C.ar      1 <0>        -0.1214
      3 C3         -0.0915    1.2092    0.5886 C.ar      1 <0>        -0.1216
      4 C4         -1.2164    1.7442   -0.0045 C.ar      1 <0>        -0.0901
      5 C5         -1.1590    3.0072   -0.5980 C.ar      1 <0>        -0.1009
      6 C6          0.0410    3.7188   -0.5976 C.ar      1 <0>        -0.0893
      7 C7          1.1667    3.1697   -0.0035 C.ar      1 <0>         0.1231
      8 N1          2.3730    3.8793   -0.0007 N.am      1 <0>        -0.6590
      9 C8          2.3643    5.2237   -0.0956 C.2       1 <0>         0.5230
     10 O1          1.3114    5.8257   -0.0825 O.2       1 <0>        -0.4934
     11 C9          3.6626    5.9789   -0.2179 C.3       1 <0>        -0.1472
     12 S1          3.3208    7.7531   -0.3256 S.3       1 <0>         0.0724
     13 C10         4.9645    8.3740   -0.4568 C.2       1 <0>         0.3385
     14 N2          5.9576    7.5194   -0.4488 N.2       1 <0>        -0.5178
     15 C11         7.2447    7.9276   -0.5460 C.ar      1 <0>         0.1439
     16 C12         8.3024    7.0138   -0.5377 C.ar      1 <0>        -0.0748
     17 C13         9.6073    7.4790   -0.6403 C.ar      1 <0>        -0.0685
     18 C14         9.8657    8.8515   -0.7517 C.ar      1 <0>        -0.0912
     19 C15         8.8406    9.7532   -0.7609 C.ar      1 <0>        -0.0631
     20 C16         7.5229    9.3084   -0.6586 C.ar      1 <0>        -0.1980
     21 C17         6.3882   10.2455   -0.6650 C.2       1 <0>         0.5586
     22 O2          6.5625   11.4463   -0.7594 O.2       1 <0>        -0.5172
     23 N3          5.1439    9.7232   -0.5676 N.am      1 <0>        -0.5257
     24 C18         3.9799   10.6127   -0.5747 C.3       1 <0>         0.1187
     25 C19         3.6535   11.0242    0.8378 C.2       1 <0>        -0.1774
     26 C20         3.5753   12.2944    1.1485 C.2       1 <0>        -0.1591
     27 C21        10.7324    6.5182   -0.6323 C.2       1 <0>         0.4894
     28 O3         10.5134    5.3276   -0.5363 O.co2     1 <0>        -0.6215
     29 C22        -2.3634    3.5854   -1.2287 C.2       1 <0>         0.4907
     30 O4         -2.3100    4.6822   -1.7479 O.co2     1 <0>        -0.6249
     31 H1          2.8775    0.7410    0.4950 H         1 <0>         0.0666
     32 H2          2.9562    2.1202    1.6174 H         1 <0>         0.0593
     33 H3          2.0224    0.6692    2.0545 H         1 <0>         0.0664
     34 H4         -0.1387    0.2340    1.0503 H         1 <0>         0.1191
     35 H5         -2.1423    1.1882   -0.0062 H         1 <0>         0.1300
     36 H6          0.0928    4.6940   -1.0588 H         1 <0>         0.1515
     37 H7          3.2154    3.4035    0.0695 H         1 <0>         0.4105
     38 H8          4.2821    5.7807    0.6567 H         1 <0>         0.1319
     39 H9          4.1881    5.6550   -1.1163 H         1 <0>         0.1334
     40 H10         8.1068    5.9550   -0.4527 H         1 <0>         0.1445
     41 H11        10.8850    9.1994   -0.8307 H         1 <0>         0.1409
     42 H12         9.0498   10.8092   -0.8476 H         1 <0>         0.1319
     43 H13         4.2035   11.4988   -1.1689 H         1 <0>         0.1058
     44 H14         3.1265   10.0908   -1.0076 H         1 <0>         0.1063
     45 H15         3.4839   10.2719    1.5939 H         1 <0>         0.1191
     46 H16         3.3413   12.5894    2.1607 H         1 <0>         0.1027
     47 H17         3.7448   13.0467    0.3923 H         1 <0>         0.1003
     48 O5         11.9994    6.9640   -0.7315 O.co2     1 <0>        -0.7478
     49 O6         -3.5209    2.8962   -1.2278 O.co2     1 <0>        -0.7595
@<TRIPOS>BOND
     1    1    2 1
     2    1   31 1
     3    1   32 1
     4    1   33 1
     5    2    7 ar
     6    2    3 ar
     7    3    4 ar
     8    3   34 1
     9    4    5 ar
    10    4   35 1
    11    5    6 ar
    12    5   29 1
    13    6    7 ar
    14    6   36 1
    15    7    8 1
    16    8    9 am
    17    8   37 1
    18    9   10 2
    19    9   11 1
    20   11   12 1
    21   11   38 1
    22   11   39 1
    23   12   13 1
    24   13   23 1
    25   13   14 2
    26   14   15 1
    27   15   20 ar
    28   15   16 ar
    29   16   17 ar
    30   16   40 1
    31   17   18 ar
    32   17   27 1
    33   18   19 ar
    34   18   41 1
    35   19   20 ar
    36   19   42 1
    37   20   21 1
    38   21   22 2
    39   21   23 am
    40   23   24 1
    41   24   25 1
    42   24   43 1
    43   24   44 1
    44   25   26 2
    45   25   45 1
    46   26   46 1
    47   26   47 1
    48   27   28 2
    49   27   48 1
    50   29   30 2
    51   29   49 1
@<TRIPOS>MOLECULE
ZINC13392323
   45    47     0     0     0
SMALL
USER_CHARGES
2-[[(2S)-1-(4-chlorophenyl)sulfonylpyrrolidine-2-carbonyl]amino]terephthalic acid
@<TRIPOS>ATOM
      1 C1         -2.2135   -6.3409    0.2883 C.ar      1 <0>         0.0752
      2 C2         -3.5210   -6.3308   -0.1597 C.ar      1 <0>        -0.1244
      3 C3         -3.9270   -7.2313   -1.1283 C.ar      1 <0>         0.0308
      4 C4         -3.0225   -8.1378   -1.6520 C.ar      1 <0>        -0.1522
      5 C5         -1.7138   -8.1432   -1.2073 C.ar      1 <0>        -0.0173
      6 C6         -1.3088   -7.2434   -0.2391 C.ar      1 <0>        -0.6663
      7 S1          0.3594   -7.2517    0.3281 S.o2      1 <0>         2.7150
      8 O1          0.8676   -8.5545    0.0760 O.2       1 <0>        -0.9682
      9 O2          0.3494   -6.6761    1.6273 O.2       1 <0>        -0.9508
     10 N1          1.2116   -6.2152   -0.6423 N.pl3     1 <0>        -0.9893
     11 C7          1.9038   -6.5811   -1.8914 C.3       1 <0>         0.1145
     12 C8          3.0050   -5.5054   -2.0644 C.3       1 <0>        -0.1235
     13 C9          2.2823   -4.2338   -1.5467 C.3       1 <0>        -0.1206
     14 C10         1.4041   -4.7779   -0.4003 C.3       1 <0>         0.1366
     15 H1          1.9039   -4.6267    0.5565 H         1 <0>         0.1152
     16 C11         0.0708   -4.0754   -0.3984 C.2       1 <0>         0.4859
     17 O3         -0.9479   -4.7076   -0.5810 O.2       1 <0>        -0.5299
     18 N2          0.0105   -2.7447   -0.1938 N.am      1 <0>        -0.6281
     19 C12        -1.2257   -2.1121   -0.0847 C.ar      1 <0>         0.1411
     20 C13        -2.2573   -2.4467   -0.9502 C.ar      1 <0>        -0.0908
     21 C14        -3.4919   -1.8115   -0.8381 C.ar      1 <0>        -0.1085
     22 C15        -3.6928   -0.8380    0.1445 C.ar      1 <0>        -0.1046
     23 C16        -2.6745   -0.5067    1.0091 C.ar      1 <0>        -0.0847
     24 C17        -1.4312   -1.1347    0.9001 C.ar      1 <0>        -0.1414
     25 C18        -0.3375   -0.7745    1.8235 C.2       1 <0>         0.5018
     26 O4          0.7432   -1.3208    1.7276 O.co2     1 <0>        -0.6410
     27 C19        -4.5925   -2.1682   -1.7604 C.2       1 <0>         0.4967
     28 O5         -4.4191   -3.0142   -2.6142 O.co2     1 <0>        -0.6316
     29 Cl1        -5.5710   -7.2243   -1.6859 Cl        1 <0>        -0.0647
     30 H2         -1.8975   -5.6409    1.0476 H         1 <0>         0.1433
     31 H3         -4.2266   -5.6229    0.2495 H         1 <0>         0.1386
     32 H4         -3.3390   -8.8413   -2.4079 H         1 <0>         0.1322
     33 H5         -1.0077   -8.8508   -1.6160 H         1 <0>         0.1361
     34 H6          2.3512   -7.5710   -1.8013 H         1 <0>         0.0850
     35 H7          1.2102   -6.5525   -2.7318 H         1 <0>         0.0698
     36 H8          3.8764   -5.7363   -1.4516 H         1 <0>         0.0790
     37 H9          3.2845   -5.3974   -3.1124 H         1 <0>         0.0847
     38 H10         1.6649   -3.7950   -2.3305 H         1 <0>         0.0843
     39 H11         3.0024   -3.5076   -1.1695 H         1 <0>         0.0946
     40 H12         0.8280   -2.2274   -0.1225 H         1 <0>         0.4180
     41 H13        -2.1032   -3.1985   -1.7100 H         1 <0>         0.1316
     42 H14        -4.6514   -0.3476    0.2285 H         1 <0>         0.1245
     43 H15        -2.8353    0.2426    1.7700 H         1 <0>         0.1269
     44 O6         -0.5379    0.1603    2.7730 O.co2     1 <0>        -0.7580
     45 O7         -5.7867   -1.5547   -1.6529 O.co2     1 <0>        -0.7657
@<TRIPOS>BOND
     1    1    6 ar
     2    1    2 ar
     3    1   30 1
     4    2    3 ar
     5    2   31 1
     6    3    4 ar
     7    3   29 1
     8    4    5 ar
     9    4   32 1
    10    5    6 ar
    11    5   33 1
    12    6    7 1
    13    7    8 2
    14    7    9 2
    15    7   10 1
    16   10   14 1
    17   10   11 1
    18   11   12 1
    19   11   34 1
    20   11   35 1
    21   12   13 1
    22   12   36 1
    23   12   37 1
    24   13   14 1
    25   13   38 1
    26   13   39 1
    27   14   15 1
    28   14   16 1
    29   16   17 2
    30   16   18 am
    31   18   19 1
    32   18   40 1
    33   19   24 ar
    34   19   20 ar
    35   20   21 ar
    36   20   41 1
    37   21   22 ar
    38   21   27 1
    39   22   23 ar
    40   22   42 1
    41   23   24 ar
    42   23   43 1
    43   24   25 1
    44   25   26 2
    45   25   44 1
    46   27   28 2
    47   27   45 1
@<TRIPOS>MOLECULE
ZINC16917849
   48    50     0     0     0
SMALL
USER_CHARGES
(2R)-2-[2-ethoxy-4-[(E)-[2-[(3-hydroxyphenyl)amino]-4-oxo-thiazol-5-ylidene]methyl]phenoxy]propanoic acid
@<TRIPOS>ATOM
      1 C1         10.0900   -3.7947    0.8156 C.3       1 <0>        -0.1508
      2 C2          8.6522   -3.2756    0.7517 C.3       1 <0>         0.0523
      3 O1          7.7457   -4.3801    0.7716 O.3       1 <0>        -0.3007
      4 C3          6.4180   -4.0901    0.7206 C.ar      1 <0>         0.0733
      5 C4          6.0008   -2.7756    0.6531 C.ar      1 <0>        -0.1492
      6 C5          4.6328   -2.4809    0.6002 C.ar      1 <0>        -0.0817
      7 C6          3.6956   -3.5213    0.6219 C.ar      1 <0>        -0.0272
      8 C7          4.1215   -4.8297    0.6835 C.ar      1 <0>        -0.1932
      9 C8          5.4784   -5.1205    0.7359 C.ar      1 <0>         0.1315
     10 O2          5.8918   -6.4126    0.8028 O.3       1 <0>        -0.2787
     11 C9          4.8776   -7.4135    0.9099 C.3       1 <0>         0.0340
     12 H1          4.0399   -7.0701    0.2852 H         1 <0>         0.0758
     13 C10         4.4649   -7.5667    2.3752 C.3       1 <0>        -0.1524
     14 C11         5.4117   -8.7267    0.3986 C.2       1 <0>         0.4766
     15 O3          6.5705   -8.8205    0.0695 O.co2     1 <0>        -0.6151
     16 O4          4.6001   -9.7920    0.3087 O.co2     1 <0>        -0.7596
     17 C12         4.1823   -1.0854    0.5283 C.2       1 <0>        -0.0006
     18 C13         3.1366   -0.7501   -0.2695 C.2       1 <0>        -0.1977
     19 C14         2.4116   -1.5615   -1.2750 C.2       1 <0>         0.5248
     20 O5          2.7135   -2.7216   -1.5054 O.2       1 <0>        -0.5159
     21 N1          1.4254   -0.9632   -1.9058 N.2       1 <0>        -0.7147
     22 C15         1.0880    0.2941   -1.6658 C.2       1 <0>         0.4555
     23 S1          2.2470    0.7956   -0.4029 S.3       1 <0>        -0.1493
     24 N2          0.0929    1.0344   -2.2501 N.2       1 <0>        -0.5850
     25 C16        -0.6528    0.4958   -3.3027 C.ar      1 <0>         0.1982
     26 C17        -1.1207    1.3216   -4.3177 C.ar      1 <0>        -0.1831
     27 C18        -1.8534    0.7885   -5.3601 C.ar      1 <0>        -0.0758
     28 C19        -2.1320   -0.5649   -5.3914 C.ar      1 <0>        -0.2135
     29 C20        -1.6718   -1.3936   -4.3778 C.ar      1 <0>         0.1619
     30 C21        -0.9317   -0.8634   -3.3325 C.ar      1 <0>        -0.2406
     31 O6         -1.9470   -2.7240   -4.4097 O.3       1 <0>        -0.5228
     32 H2         10.7878   -2.9445    0.8003 H         1 <0>         0.0706
     33 H3         10.2842   -4.4441   -0.0507 H         1 <0>         0.0669
     34 H4         10.2317   -4.3687    1.7432 H         1 <0>         0.0649
     35 H5          8.4580   -2.6262    1.6180 H         1 <0>         0.0550
     36 H6          8.5105   -2.7016   -0.1759 H         1 <0>         0.0562
     37 H7          6.7276   -1.9768    0.6408 H         1 <0>         0.1281
     38 H8          2.6395   -3.2980    0.5861 H         1 <0>         0.1235
     39 H9          3.3981   -5.6315    0.6957 H         1 <0>         0.1363
     40 H10         3.6842   -8.3372    2.4576 H         1 <0>         0.0757
     41 H11         4.0750   -6.6082    2.7484 H         1 <0>         0.0510
     42 H12         5.3388   -7.8648    2.9730 H         1 <0>         0.0587
     43 H13         4.6922   -0.3116    1.1209 H         1 <0>         0.1291
     44 H14        -0.9082    2.3802   -4.2934 H         1 <0>         0.1132
     45 H15        -2.2128    1.4311   -6.1503 H         1 <0>         0.1147
     46 H16        -2.7090   -0.9781   -6.2055 H         1 <0>         0.1103
     47 H17        -0.5730   -1.5068   -2.5427 H         1 <0>         0.1400
     48 H18        -1.5821   -3.3806   -3.6061 H         1 <0>         0.4299
@<TRIPOS>BOND
     1    1    2 1
     2    1   32 1
     3    1   33 1
     4    1   34 1
     5    2    3 1
     6    2   35 1
     7    2   36 1
     8    3    4 1
     9    4    9 ar
    10    4    5 ar
    11    5    6 ar
    12    5   37 1
    13    6    7 ar
    14    6   17 1
    15    7    8 ar
    16    7   38 1
    17    8    9 ar
    18    8   39 1
    19    9   10 1
    20   10   11 1
    21   11   12 1
    22   11   13 1
    23   11   14 1
    24   13   40 1
    25   13   41 1
    26   13   42 1
    27   14   15 2
    28   14   16 1
    29   17   18 2
    30   17   43 1
    31   18   23 1
    32   18   19 1
    33   19   20 2
    34   19   21 1
    35   21   22 2
    36   22   23 1
    37   22   24 1
    38   24   25 1
    39   25   30 ar
    40   25   26 ar
    41   26   27 ar
    42   26   44 1
    43   27   28 ar
    44   27   45 1
    45   28   29 ar
    46   28   46 1
    47   29   30 ar
    48   29   31 1
    49   30   47 1
    50   31   48 1
@<TRIPOS>MOLECULE
ZINC13276752
   46    49     0     0     0
SMALL
USER_CHARGES

@<TRIPOS>ATOM
      1 C1          3.9823   -1.4587    0.8090 C.3       1 <0>         0.0327
      2 O1          2.6574   -1.9595    0.6192 O.3       1 <0>        -0.2983
      3 C2          1.9836   -1.5221   -0.4769 C.ar      1 <0>         0.1424
      4 C3          2.5874   -0.6336   -1.3551 C.ar      1 <0>        -0.2184
      5 C4          1.9007   -0.1910   -2.4688 C.ar      1 <0>        -0.0867
      6 C5          0.6124   -0.6325   -2.7089 C.ar      1 <0>        -0.1689
      7 C6          0.0084   -1.5174   -1.8351 C.ar      1 <0>        -0.0413
      8 C7          0.6932   -1.9676   -0.7228 C.ar      1 <0>        -0.1031
      9 C8          0.0365   -2.9370    0.2259 C.3       1 <0>         0.2612
     10 H1          0.2255   -2.6380    1.2569 H         1 <0>         0.0754
     11 C9         -1.4507   -2.9918   -0.0346 C.2       1 <0>        -0.4847
     12 C10        -1.7394   -4.2707   -0.3830 C.2       1 <0>         0.2951
     13 C11        -0.4956   -5.0703   -0.3636 C.2       1 <0>         0.5122
     14 O2         -0.4233   -6.2537   -0.6293 O.2       1 <0>        -0.5240
     15 N1          0.5451   -4.2937   -0.0071 N.am      1 <0>        -0.5593
     16 C12         1.8754   -4.7058    0.1179 C.ar      1 <0>         0.1687
     17 C13         2.3835   -5.0388    1.3633 C.ar      1 <0>        -0.0558
     18 C14         3.7127   -5.4503    1.4825 C.ar      1 <0>        -0.1257
     19 C15         4.5216   -5.5233    0.3447 C.ar      1 <0>        -0.0789
     20 C16         4.0066   -5.1893   -0.8901 C.ar      1 <0>        -0.1323
     21 C17         2.6876   -4.7870   -1.0093 C.ar      1 <0>        -0.0278
     22 Cl1         2.0463   -4.3755   -2.5691 Cl        1 <0>        -0.0776
     23 C18         4.2613   -5.8060    2.8045 C.2       1 <0>         0.5257
     24 O3          3.5519   -5.7410    3.7986 O.co2     1 <0>        -0.6831
     25 O4          5.4257   -6.1661    2.9066 O.co2     1 <0>        -0.6929
     26 O5         -2.9677   -4.7394   -0.6971 O.3       1 <0>        -0.6070
     27 C19        -2.3652   -1.9174    0.0653 C.2       1 <0>         0.4497
     28 O6         -3.5415   -2.0972   -0.1744 O.2       1 <0>        -0.5136
     29 C20        -1.8792   -0.5493    0.4694 C.3       1 <0>        -0.1911
     30 C21        -2.7450    0.2477    1.4472 C.3       1 <0>        -0.1636
     31 C22        -2.6776    0.6586   -0.0251 C.3       1 <0>        -0.1622
     32 H2          4.6010   -1.7352   -0.0448 H         1 <0>         0.0498
     33 H3          3.9509   -0.3728    0.8984 H         1 <0>         0.0461
     34 H4          4.4055   -1.8860    1.7180 H         1 <0>         0.0983
     35 H5          3.5934   -0.2882   -1.1679 H         1 <0>         0.1181
     36 H6          2.3701    0.5009   -3.1525 H         1 <0>         0.1110
     37 H7          0.0770   -0.2852   -3.5802 H         1 <0>         0.1129
     38 H8         -0.9980   -1.8605   -2.0246 H         1 <0>         0.1331
     39 H9          1.7538   -4.9801    2.2388 H         1 <0>         0.1340
     40 H10         5.5501   -5.8411    0.4328 H         1 <0>         0.1317
     41 H11         4.6333   -5.2461   -1.7678 H         1 <0>         0.1220
     42 H12        -0.7977   -0.4393    0.5493 H         1 <0>         0.1101
     43 H13        -3.6662   -0.2175    1.7982 H         1 <0>         0.0944
     44 H14        -2.2332    0.8822    2.1707 H         1 <0>         0.0886
     45 H15        -2.1214    1.5634   -0.2701 H         1 <0>         0.0870
     46 H16        -3.5544    0.4637   -0.6427 H         1 <0>         0.0960
@<TRIPOS>BOND
     1    1    2 1
     2    1   32 1
     3    1   33 1
     4    1   34 1
     5    2    3 1
     6    3    8 ar
     7    3    4 ar
     8    4    5 ar
     9    4   35 1
    10    5    6 ar
    11    5   36 1
    12    6    7 ar
    13    6   37 1
    14    7    8 ar
    15    7   38 1
    16    8    9 1
    17    9   10 1
    18    9   15 1
    19    9   11 1
    20   11   12 2
    21   11   27 1
    22   12   13 1
    23   12   26 1
    24   13   14 2
    25   13   15 am
    26   15   16 1
    27   16   21 ar
    28   16   17 ar
    29   17   18 ar
    30   17   39 1
    31   18   19 ar
    32   18   23 1
    33   19   20 ar
    34   19   40 1
    35   20   21 ar
    36   20   41 1
    37   21   22 1
    38   23   24 2
    39   23   25 1
    40   27   28 2
    41   27   29 1
    42   29   31 1
    43   29   30 1
    44   29   42 1
    45   30   31 1
    46   30   43 1
    47   30   44 1
    48   31   45 1
    49   31   46 1
@<TRIPOS>MOLECULE
ZINC13215503
   45    48     0     0     0
SMALL
USER_CHARGES

@<TRIPOS>ATOM
      1 C1         -1.6371    0.8318    0.0810 C.3       1 <0>        -0.1037
      2 C2         -1.4894   -0.6653    0.1709 C.ar      1 <0>        -0.0901
      3 C3         -1.8689   -1.4600   -0.8951 C.ar      1 <0>        -0.1371
      4 C4         -1.7374   -2.8312   -0.8208 C.ar      1 <0>        -0.0837
      5 C5         -1.2186   -3.4218    0.3348 C.ar      1 <0>        -0.1357
      6 C6         -0.8352   -2.6192    1.4106 C.ar      1 <0>        -0.0656
      7 C7         -0.9669   -1.2417    1.3229 C.ar      1 <0>         0.1404
      8 N1         -0.5796   -0.4329    2.3953 N.am      1 <0>        -0.5639
      9 C8         -1.4316   -0.0185    3.5162 C.3       1 <0>         0.2844
     10 H1         -2.2796    0.5593    3.1487 H         1 <0>         0.0660
     11 C9         -0.5655    0.8398    4.4084 C.2       1 <0>        -0.5009
     12 C10         0.6575    0.8942    3.8302 C.2       1 <0>         0.2707
     13 C11         0.6416    0.0985    2.5854 C.2       1 <0>         0.5113
     14 O1          1.5909   -0.0516    1.8417 O.2       1 <0>        -0.5267
     15 O2          1.7257    1.5665    4.3173 O.3       1 <0>        -0.6571
     16 C12        -0.9713    1.4890    5.6583 C.2       1 <0>         0.5058
     17 O3         -0.4485    1.1669    6.7089 O.2       1 <0>        -0.4732
     18 C13        -2.0152    2.5345    5.6427 C.ar      1 <0>        -0.1396
     19 C14        -2.5411    2.9822    4.4280 C.ar      1 <0>        -0.0364
     20 C15        -3.5148    3.9572    4.4194 C.ar      1 <0>        -0.1681
     21 C16        -3.9730    4.4940    5.6134 C.ar      1 <0>         0.1021
     22 C17        -3.4542    4.0537    6.8220 C.ar      1 <0>        -0.1702
     23 C18        -2.4842    3.0751    6.8428 C.ar      1 <0>        -0.0488
     24 F1         -4.9278    5.4497    5.5991 F         1 <0>        -0.1464
     25 C19        -1.9180   -1.2281    4.2722 C.2       1 <0>        -0.1315
     26 C20        -3.2490   -1.3456    4.6261 C.2       1 <0>        -0.1337
     27 C21        -3.6537   -2.4463    5.3058 C.2       1 <0>        -0.1967
     28 S1         -2.1299   -3.3628    5.4653 S.3       1 <0>         0.0204
     29 C22        -1.0578   -2.2196    4.6103 C.2       1 <0>        -0.1166
     30 C23        -1.0772   -4.8882    0.4175 C.2       1 <0>         0.5244
     31 O4         -1.4142   -5.5892   -0.5262 O.co2     1 <0>        -0.6958
     32 O5         -0.6230   -5.4026    1.4298 O.co2     1 <0>        -0.6835
     33 H2         -0.7263    1.2624   -0.3350 H         1 <0>         0.0636
     34 H3         -2.4816    1.0755   -0.5636 H         1 <0>         0.0579
     35 H4         -1.8102    1.2402    1.0767 H         1 <0>         0.0636
     36 H5         -2.2700   -1.0056   -1.7889 H         1 <0>         0.1143
     37 H6         -2.0357   -3.4483   -1.6555 H         1 <0>         0.1241
     38 H7         -0.4336   -3.0693    2.3065 H         1 <0>         0.1269
     39 H8         -2.1848    2.5652    3.4977 H         1 <0>         0.1456
     40 H9         -3.9218    4.3043    3.4812 H         1 <0>         0.1348
     41 H10        -3.8141    4.4757    7.7487 H         1 <0>         0.1320
     42 H11        -2.0842    2.7298    7.7846 H         1 <0>         0.1388
     43 H12        -3.9558   -0.5718    4.3653 H         1 <0>         0.1251
     44 H13        -4.6415   -2.7023    5.6595 H         1 <0>         0.1765
     45 H14         0.0014   -2.2973    4.4144 H         1 <0>         0.1762
@<TRIPOS>BOND
     1    1    2 1
     2    1   33 1
     3    1   34 1
     4    1   35 1
     5    2    7 ar
     6    2    3 ar
     7    3    4 ar
     8    3   36 1
     9    4    5 ar
    10    4   37 1
    11    5    6 ar
    12    5   30 1
    13    6    7 ar
    14    6   38 1
    15    7    8 1
    16    8   13 am
    17    8    9 1
    18    9   10 1
    19    9   11 1
    20    9   25 1
    21   11   12 2
    22   11   16 1
    23   12   13 1
    24   12   15 1
    25   13   14 2
    26   16   17 2
    27   16   18 1
    28   18   23 ar
    29   18   19 ar
    30   19   20 ar
    31   19   39 1
    32   20   21 ar
    33   20   40 1
    34   21   22 ar
    35   21   24 1
    36   22   23 ar
    37   22   41 1
    38   23   42 1
    39   25   29 2
    40   25   26 1
    41   26   27 2
    42   26   43 1
    43   27   28 1
    44   27   44 1
    45   28   29 1
    46   29   45 1
    47   30   31 2
    48   30   32 1
@<TRIPOS>MOLECULE
ZINC01616410
   36    37     0     0     0
SMALL
USER_CHARGES
2,5-bis(4-chlorophenyl)-3,4-dioxo-hexanedioic acid
@<TRIPOS>ATOM
      1 C1         -0.3474    5.8655    3.8081 C.ar      1 <0>        -0.0694
      2 C2         -0.6984    6.3920    5.0369 C.ar      1 <0>        -0.1128
      3 C3         -1.6768    7.3669    5.1175 C.ar      1 <0>        -0.0451
      4 C4         -2.2993    7.8181    3.9673 C.ar      1 <0>        -0.1177
      5 C5         -1.9435    7.2949    2.7385 C.ar      1 <0>        -0.1012
      6 C6         -0.9658    6.3208    2.6586 C.ar      1 <0>        -0.0249
      7 C7         -0.5783    5.7507    1.3185 C.3       1 <0>        -0.1395
      8 H1         -1.1226    6.1858    0.6012 H         1 <0>         0.1008
      9 C8         -0.8335    4.2655    1.3116 C.2       1 <0>         0.3648
     10 O1         -0.8410    3.6492    2.3504 O.2       1 <0>        -0.4155
     11 C9         -1.0761    3.5590    0.0265 C.2       1 <0>         0.3648
     12 O2         -1.0686    4.1753   -1.0123 O.2       1 <0>        -0.4154
     13 C10        -1.3313    2.0738    0.0196 C.3       1 <0>        -0.1395
     14 H2         -1.8485    1.8207    0.8372 H         1 <0>         0.1007
     15 C11        -2.1224    1.7057   -1.2091 C.ar      1 <0>        -0.0249
     16 C12        -1.6085    1.9669   -2.4656 C.ar      1 <0>        -0.0694
     17 C13        -2.3311    1.6244   -3.5929 C.ar      1 <0>        -0.1128
     18 C14        -3.5738    1.0303   -3.4637 C.ar      1 <0>        -0.0451
     19 C15        -4.0901    0.7743   -2.2058 C.ar      1 <0>        -0.1177
     20 C16        -3.3641    1.1121   -1.0793 C.ar      1 <0>        -0.1012
     21 Cl1        -4.4853    0.6068   -4.8791 Cl        1 <0>        -0.0970
     22 C17        -0.0161    1.3381    0.0094 C.2       1 <0>         0.4848
     23 O3          1.0219    1.9564    0.0028 O.co2     1 <0>        -0.5925
     24 C18         0.8846    6.0102    1.0663 C.2       1 <0>         0.4848
     25 O4          1.6422    5.0841    0.8981 O.co2     1 <0>        -0.5926
     26 Cl2        -2.1236    8.0232    6.6613 Cl        1 <0>        -0.0970
     27 H3          0.4132    5.1013    3.7455 H         1 <0>         0.1365
     28 H4         -0.2121    6.0393    5.9344 H         1 <0>         0.1281
     29 H5         -3.0634    8.5788    4.0296 H         1 <0>         0.1265
     30 H6         -2.4296    7.6468    1.8406 H         1 <0>         0.1295
     31 H7         -0.6403    2.4347   -2.5663 H         1 <0>         0.1366
     32 H8         -1.9276    1.8246   -4.5745 H         1 <0>         0.1281
     33 H9         -5.0603    0.3108   -2.1043 H         1 <0>         0.1265
     34 H10        -3.7671    0.9126   -0.0974 H         1 <0>         0.1295
     35 O5          0.0021   -0.0041    0.0020 O.co2     1 <0>        -0.7556
     36 O6          1.3460    7.2701    1.0283 O.co2     1 <0>        -0.7555
@<TRIPOS>BOND
     1    1    6 ar
     2    1    2 ar
     3    1   27 1
     4    2    3 ar
     5    2   28 1
     6    3    4 ar
     7    3   26 1
     8    4    5 ar
     9    4   29 1
    10    5    6 ar
    11    5   30 1
    12    6    7 1
    13    7    8 1
    14    7    9 1
    15    7   24 1
    16    9   10 2
    17    9   11 1
    18   11   12 2
    19   11   13 1
    20   13   14 1
    21   13   15 1
    22   13   22 1
    23   15   20 ar
    24   15   16 ar
    25   16   17 ar
    26   16   31 1
    27   17   18 ar
    28   17   32 1
    29   18   19 ar
    30   18   21 1
    31   19   20 ar
    32   19   33 1
    33   20   34 1
    34   22   23 2
    35   22   35 1
    36   24   25 2
    37   24   36 1
@<TRIPOS>MOLECULE
ZINC19792665
   41    43     0     0     0
SMALL
USER_CHARGES
2-[(5S)-4-(4-chlorobenzoyl)-3-hydroxy-2-oxo-5-(p-tolyl)-5H-pyrrol-1-yl]acetic acid
@<TRIPOS>ATOM
      1 C1         -2.7784    6.8661   -1.9958 C.3       1 <0>        -0.1027
      2 C2         -2.1805    5.8961   -1.0095 C.ar      1 <0>        -0.1039
      3 C3         -2.9986    5.0270   -0.3122 C.ar      1 <0>        -0.1238
      4 C4         -2.4502    4.1373    0.5925 C.ar      1 <0>        -0.0205
      5 C5         -1.0835    4.1160    0.7992 C.ar      1 <0>        -0.0860
      6 C6         -0.2659    4.9883    0.1054 C.ar      1 <0>        -0.1176
      7 C7         -0.8139    5.8751   -0.8025 C.ar      1 <0>        -0.1424
      8 C8         -0.4857    3.1460    1.7855 C.3       1 <0>         0.2667
      9 H1          0.6098    3.2282    1.7299 H         1 <0>         0.0576
     10 C9         -1.0113    3.4300    3.1732 C.2       1 <0>        -0.5075
     11 C10        -1.6547    2.3120    3.5835 C.2       1 <0>         0.2735
     12 C11        -1.5827    1.2913    2.5167 C.2       1 <0>         0.5135
     13 O1         -2.0666    0.1788    2.5823 O.2       1 <0>        -0.5445
     14 N1         -0.9025    1.7765    1.4622 N.am      1 <0>        -0.5848
     15 C12        -0.6220    1.0619    0.2144 C.3       1 <0>         0.0930
     16 C13        -1.8123    1.1680   -0.7037 C.2       1 <0>         0.4534
     17 O2         -2.8401    1.6629   -0.3056 O.co2     1 <0>        -0.6087
     18 O3         -1.7306    0.7128   -1.9638 O.co2     1 <0>        -0.7885
     19 O4         -2.2664    2.1539    4.7797 O.3       1 <0>        -0.6689
     20 C14        -0.8502    4.6742    3.9316 C.2       1 <0>         0.5058
     21 O5         -1.8218    5.3599    4.1889 O.2       1 <0>        -0.4744
     22 C15         0.4924    5.0956    4.3835 C.ar      1 <0>        -0.1216
     23 C16         1.5888    4.2474    4.2108 C.ar      1 <0>        -0.0496
     24 C17         2.8396    4.6486    4.6293 C.ar      1 <0>        -0.1269
     25 C18         3.0085    5.8854    5.2304 C.ar      1 <0>        -0.0251
     26 C19         1.9240    6.7288    5.4097 C.ar      1 <0>        -0.1291
     27 C20         0.6691    6.3414    4.9903 C.ar      1 <0>        -0.0663
     28 Cl1         4.5855    6.3807    5.7607 Cl        1 <0>        -0.0894
     29 H2         -3.8702    6.7349   -2.0232 H         1 <0>         0.0575
     30 H3         -2.3610    6.6763   -2.9957 H         1 <0>         0.0589
     31 H4         -2.5403    7.8951   -1.6884 H         1 <0>         0.0567
     32 H5         -4.0663    5.0434   -0.4739 H         1 <0>         0.1087
     33 H6         -3.0894    3.4586    1.1376 H         1 <0>         0.1258
     34 H7          0.8014    4.9747    0.2701 H         1 <0>         0.1092
     35 H8         -0.1747    6.5538   -1.3476 H         1 <0>         0.1059
     36 H9          0.2579    1.5069   -0.2731 H         1 <0>         0.0744
     37 H10        -0.4225    0.0029    0.4352 H         1 <0>         0.0750
     38 H11         1.4576    3.2811    3.7467 H         1 <0>         0.1475
     39 H12         3.6889    3.9956    4.4923 H         1 <0>         0.1323
     40 H13         2.0620    7.6919    5.8786 H         1 <0>         0.1292
     41 H14        -0.1754    6.9999    5.1303 H         1 <0>         0.1377
@<TRIPOS>BOND
     1    1    2 1
     2    1   29 1
     3    1   30 1
     4    1   31 1
     5    2    7 ar
     6    2    3 ar
     7    3    4 ar
     8    3   32 1
     9    4    5 ar
    10    4   33 1
    11    5    6 ar
    12    5    8 1
    13    6    7 ar
    14    6   34 1
    15    7   35 1
    16    8    9 1
    17    8   14 1
    18    8   10 1
    19   10   11 2
    20   10   20 1
    21   11   12 1
    22   11   19 1
    23   12   13 2
    24   12   14 am
    25   14   15 1
    26   15   16 1
    27   15   36 1
    28   15   37 1
    29   16   17 2
    30   16   18 1
    31   20   21 2
    32   20   22 1
    33   22   27 ar
    34   22   23 ar
    35   23   24 ar
    36   23   38 1
    37   24   25 ar
    38   24   39 1
    39   25   26 ar
    40   25   28 1
    41   26   27 ar
    42   26   40 1
    43   27   41 1
@<TRIPOS>MOLECULE
ZINC27530435
   43    44     0     0     0
SMALL
USER_CHARGES
(2R)-2-[(5E)-5-[(4-isopropylphenyl)methylene]-4-oxo-2-thioxo-thiazolidin-3-yl]pentanedioic acid
@<TRIPOS>ATOM
      1 C1         -6.2777    7.7920    3.1527 C.3       1 <0>        -0.1442
      2 C2         -6.3460    7.3337    1.6946 C.3       1 <0>        -0.0561
      3 C3         -5.2319    8.0112    0.8942 C.3       1 <0>        -0.1478
      4 C4         -6.1731    5.8380    1.6295 C.ar      1 <0>        -0.0642
      5 C5         -7.1761    5.0521    1.0888 C.ar      1 <0>        -0.1339
      6 C6         -7.0257    3.6831    1.0255 C.ar      1 <0>        -0.0866
      7 C7         -5.8550    3.0886    1.5094 C.ar      1 <0>        -0.0841
      8 C8         -4.8480    3.8899    2.0589 C.ar      1 <0>        -0.0401
      9 C9         -5.0120    5.2578    2.1103 C.ar      1 <0>        -0.1206
     10 C10        -5.6866    1.6297    1.4464 C.2       1 <0>         0.0381
     11 C11        -4.4752    1.0993    1.1457 C.2       1 <0>        -0.1979
     12 C12        -3.2398    1.7704    0.6877 C.2       1 <0>         0.5359
     13 O1         -3.1900    2.9748    0.5216 O.2       1 <0>        -0.4624
     14 N1         -2.1921    0.9942    0.4673 N.am      1 <0>        -0.4870
     15 C13        -2.2535   -0.3408    0.6469 C.2       1 <0>         0.3000
     16 S1         -1.0191   -1.5031    0.4096 S.2       1 <0>        -0.2668
     17 S2         -3.9327   -0.6033    1.1942 S.3       1 <0>        -0.0102
     18 C14        -0.9374    1.5980    0.0118 C.3       1 <0>         0.0688
     19 H1         -1.0989    2.6837   -0.0604 H         1 <0>         0.1097
     20 C15        -0.5511    1.0083   -1.3461 C.3       1 <0>        -0.1080
     21 C16        -1.5951    1.4073   -2.3910 C.3       1 <0>        -0.1515
     22 C17        -1.2146    0.8265   -3.7285 C.2       1 <0>         0.4653
     23 O2         -0.2114    0.1616   -3.8351 O.co2     1 <0>        -0.6313
     24 O3         -1.9902    1.0478   -4.8015 O.co2     1 <0>        -0.7894
     25 C18         0.1515    1.3094    1.0128 C.2       1 <0>         0.4794
     26 O4         -0.0952    0.6655    2.0050 O.co2     1 <0>        -0.6239
     27 O5          1.3954    1.7678    0.8023 O.co2     1 <0>        -0.7465
     28 H2         -7.0787    7.3048    3.7281 H         1 <0>         0.0546
     29 H3         -6.4040    8.8837    3.2002 H         1 <0>         0.0550
     30 H4         -5.3013    7.5169    3.5781 H         1 <0>         0.0591
     31 H5         -7.3253    7.5938    1.2664 H         1 <0>         0.0750
     32 H6         -5.2811    7.6816   -0.1541 H         1 <0>         0.0589
     33 H7         -4.2555    7.7361    1.3196 H         1 <0>         0.0607
     34 H8         -5.3582    9.1029    0.9417 H         1 <0>         0.0549
     35 H9         -8.0790    5.5125    0.7157 H         1 <0>         0.1199
     36 H10        -7.8092    3.0712    0.6033 H         1 <0>         0.1248
     37 H11        -3.9434    3.4383    2.4386 H         1 <0>         0.1246
     38 H12        -4.2342    5.8780    2.5307 H         1 <0>         0.1213
     39 H13        -6.5431    0.9682    1.6432 H         1 <0>         0.1549
     40 H14         0.4343    1.3941   -1.6464 H         1 <0>         0.0933
     41 H15        -0.5081   -0.0883   -1.2708 H         1 <0>         0.0966
     42 H16        -2.5805    1.0215   -2.0907 H         1 <0>         0.0429
     43 H17        -1.6381    2.5039   -2.4663 H         1 <0>         0.0589
@<TRIPOS>BOND
     1    1    2 1
     2    1   28 1
     3    1   29 1
     4    1   30 1
     5    2    3 1
     6    2    4 1
     7    2   31 1
     8    3   32 1
     9    3   33 1
    10    3   34 1
    11    4    9 ar
    12    4    5 ar
    13    5    6 ar
    14    5   35 1
    15    6    7 ar
    16    6   36 1
    17    7    8 ar
    18    7   10 1
    19    8    9 ar
    20    8   37 1
    21    9   38 1
    22   10   11 2
    23   10   39 1
    24   11   17 1
    25   11   12 1
    26   12   13 2
    27   12   14 am
    28   14   15 1
    29   14   18 1
    30   15   16 2
    31   15   17 1
    32   18   19 1
    33   18   20 1
    34   18   25 1
    35   20   21 1
    36   20   40 1
    37   20   41 1
    38   21   22 1
    39   21   42 1
    40   21   43 1
    41   22   23 2
    42   22   24 1
    43   25   26 2
    44   25   27 1
@<TRIPOS>MOLECULE
ZINC15034739
   34    35     0     0     0
SMALL
USER_CHARGES

@<TRIPOS>ATOM
      1 C1          1.1901   -0.6412   -0.4099 C.ar      1 <0>        -0.0884
      2 C2          2.3637    0.0788   -0.4719 C.ar      1 <0>        -0.1013
      3 C3          2.3648    1.4345   -0.1860 C.ar      1 <0>        -0.0299
      4 C4          1.1881    2.0768    0.1642 C.ar      1 <0>        -0.1138
      5 C5          0.0066    1.3703    0.2305 C.ar      1 <0>        -0.0821
      6 C6         -0.0026    0.0007   -0.0574 C.ar      1 <0>        -0.0559
      7 C7         -1.2584   -0.7598    0.0105 C.2       1 <0>         0.0052
      8 C8         -1.2394   -2.1116   -0.0994 C.2       1 <0>        -0.1704
      9 C9         -2.3641   -3.0631   -0.2199 C.2       1 <0>         0.5329
     10 O1         -3.5213   -2.6871   -0.2335 O.2       1 <0>        -0.4834
     11 N1         -2.0482   -4.3439   -0.3126 N.am      1 <0>        -0.4818
     12 C10        -0.7644   -4.7562   -0.2975 C.2       1 <0>         0.2134
     13 S1         -0.1598   -6.3542   -0.4053 S.2       1 <0>        -0.1581
     14 S2          0.1530   -3.2318   -0.1460 S.3       1 <0>        -0.0112
     15 C11        -3.1177   -5.3378   -0.4340 C.3       1 <0>         0.0438
     16 H1         -4.0842   -4.8339   -0.4292 H         1 <0>         0.1008
     17 C12        -2.9509   -6.1088   -1.7450 C.3       1 <0>        -0.1033
     18 C13        -3.1480   -5.1559   -2.9257 C.3       1 <0>        -0.1762
     19 C14        -2.9838   -5.9153   -4.2170 C.2       1 <0>         0.4949
     20 O2         -2.7325   -7.1081   -4.1949 O.co2     1 <0>        -0.6913
     21 O3         -3.1024   -5.3368   -5.2837 O.co2     1 <0>        -0.7184
     22 C15        -3.0456   -6.2974    0.7257 C.2       1 <0>         0.5022
     23 O4         -4.0619   -6.8253    1.1442 O.co2     1 <0>        -0.6833
     24 O5         -1.9712   -6.5458    1.2456 O.co2     1 <0>        -0.6519
     25 Cl1         3.8481    2.3328   -0.2662 Cl        1 <0>        -0.0763
     26 H2          1.1900   -1.6970   -0.6371 H         1 <0>         0.1470
     27 H3          3.2848   -0.4152   -0.7438 H         1 <0>         0.1391
     28 H4          1.1968    3.1337    0.3861 H         1 <0>         0.1352
     29 H5         -0.9097    1.8721    0.5042 H         1 <0>         0.1399
     30 H6         -2.1963   -0.2423    0.1478 H         1 <0>         0.1577
     31 H7         -1.9505   -6.5393   -1.7886 H         1 <0>         0.0959
     32 H8         -3.6922   -6.9064   -1.7942 H         1 <0>         0.0786
     33 H9         -4.1485   -4.7254   -2.8820 H         1 <0>         0.0512
     34 H10        -2.4068   -4.3582   -2.8765 H         1 <0>         0.0388
@<TRIPOS>BOND
     1    1    6 ar
     2    1    2 ar
     3    1   26 1
     4    2    3 ar
     5    2   27 1
     6    3    4 ar
     7    3   25 1
     8    4    5 ar
     9    4   28 1
    10    5    6 ar
    11    5   29 1
    12    6    7 1
    13    7    8 2
    14    7   30 1
    15    8   14 1
    16    8    9 1
    17    9   10 2
    18    9   11 am
    19   11   12 1
    20   11   15 1
    21   12   13 2
    22   12   14 1
    23   15   16 1
    24   15   17 1
    25   15   22 1
    26   17   18 1
    27   17   31 1
    28   17   32 1
    29   18   19 1
    30   18   33 1
    31   18   34 1
    32   19   20 2
    33   19   21 1
    34   22   23 2
    35   22   24 1
@<TRIPOS>MOLECULE
ZINC59678973
   44    46     0     0     0
SMALL
USER_CHARGES

@<TRIPOS>ATOM
      1 C1         -0.0184    1.5028    0.0103 C.3       1 <0>        -0.0917
      2 C2          0.0021   -0.0041    0.0020 C.2       1 <0>         0.0311
      3 C3          0.0080   -0.7770   -1.0976 C.2       1 <0>        -0.1714
      4 C4          0.0294   -2.1687   -0.6310 C.2       1 <0>        -0.2159
      5 C5          0.0346   -2.1082    0.7480 C.2       1 <0>         0.1346
      6 N1          0.0234   -0.8019    1.1112 N.pl3     1 <0>        -0.3701
      7 C6          0.0299   -0.3369    2.4339 C.ar      1 <0>         0.0426
      8 C7          1.1329   -0.5668    3.2422 C.ar      1 <0>        -0.0694
      9 C8          1.1432   -0.1054    4.5614 C.ar      1 <0>        -0.1469
     10 C9          0.0425    0.5873    5.0642 C.ar      1 <0>        -0.0290
     11 C10        -1.0644    0.8167    4.2479 C.ar      1 <0>        -0.1475
     12 C11        -1.0645    0.3565    2.9284 C.ar      1 <0>        -0.0714
     13 C12        -2.2320    1.5493    4.7750 C.2       1 <0>         0.5276
     14 O1         -2.2293    1.9556    5.9284 O.co2     1 <0>        -0.6834
     15 O2         -3.2024    1.7500    4.0583 O.co2     1 <0>        -0.6972
     16 C13         2.3171   -0.3514    5.4210 C.2       1 <0>         0.5275
     17 O3          3.2818   -0.9594    4.9793 O.co2     1 <0>        -0.6966
     18 O4          2.3253    0.0527    6.5752 O.co2     1 <0>        -0.6837
     19 C14         0.0550   -3.2877    1.6858 C.3       1 <0>        -0.0944
     20 C15         0.0426   -3.3784   -1.4617 C.2       1 <0>         0.2933
     21 N2          0.0610   -4.5572   -0.8989 N.2       1 <0>        -0.5369
     22 C16         0.0733   -5.6830   -1.6721 C.ar      1 <0>         0.1574
     23 C17        -0.7823   -5.7840   -2.7742 C.ar      1 <0>        -0.1748
     24 C18        -0.7697   -6.9093   -3.5474 C.ar      1 <0>        -0.0452
     25 C19         0.0988   -7.9611   -3.2375 C.ar      1 <0>        -0.0731
     26 C20         0.9540   -7.8604   -2.1352 C.ar      1 <0>        -0.0485
     27 C21         0.9455   -6.7327   -1.3653 C.ar      1 <0>        -0.1240
     28 C22         0.1120   -9.1413   -4.0484 C.1       1 <0>         0.2665
     29 N3          0.1225  -10.0775   -4.6918 N.1       1 <0>        -0.4398
     30 H1          1.0042    1.8801    0.0026 H         1 <0>         0.0696
     31 H2         -0.5455    1.8639   -0.8728 H         1 <0>         0.0759
     32 H3         -0.5286    1.8543    0.9071 H         1 <0>         0.0753
     33 H4         -0.0016   -0.4400   -2.1236 H         1 <0>         0.1427
     34 H5          1.9850   -1.1034    2.8520 H         1 <0>         0.1242
     35 H6          0.0472    0.9449    6.0833 H         1 <0>         0.1385
     36 H7         -1.9197    0.5373    2.2942 H         1 <0>         0.1247
     37 H8          1.0875   -3.5575    1.9078 H         1 <0>         0.0783
     38 H9         -0.4589   -3.0255    2.6106 H         1 <0>         0.0660
     39 H10        -0.4488   -4.1331    1.2173 H         1 <0>         0.0998
     40 H11         0.0372   -3.2941   -2.5384 H         1 <0>         0.1050
     41 H12        -1.4532   -4.9720   -3.0133 H         1 <0>         0.1314
     42 H13        -1.4305   -6.9874   -4.3981 H         1 <0>         0.1281
     43 H14         1.6241   -8.6728   -1.8955 H         1 <0>         0.1317
     44 H15         1.6093   -6.6529   -0.5171 H         1 <0>         0.1391
@<TRIPOS>BOND
     1    1    2 1
     2    1   30 1
     3    1   31 1
     4    1   32 1
     5    2    6 1
     6    2    3 2
     7    3    4 1
     8    3   33 1
     9    4    5 2
    10    4   20 1
    11    5    6 1
    12    5   19 1
    13    6    7 1
    14    7   12 ar
    15    7    8 ar
    16    8    9 ar
    17    8   34 1
    18    9   10 ar
    19    9   16 1
    20   10   11 ar
    21   10   35 1
    22   11   12 ar
    23   11   13 1
    24   12   36 1
    25   13   14 2
    26   13   15 1
    27   16   17 2
    28   16   18 1
    29   19   37 1
    30   19   38 1
    31   19   39 1
    32   20   21 2
    33   20   40 1
    34   21   22 1
    35   22   27 ar
    36   22   23 ar
    37   23   24 ar
    38   23   41 1
    39   24   25 ar
    40   24   42 1
    41   25   26 ar
    42   25   28 1
    43   26   27 ar
    44   26   43 1
    45   27   44 1
    46   28   29 3
@<TRIPOS>MOLECULE
ZINC67244216
   38    39     0     0     0
SMALL
USER_CHARGES

@<TRIPOS>ATOM
      1 C1         -0.0187    1.5258    0.0104 C.3       1 <0>        -0.1410
      2 C2          0.0021   -0.0041    0.0020 C.3       1 <0>        -0.6049
      3 S1         -1.6997   -0.6320    0.0149 S.o2      1 <0>         2.5227
      4 O1         -2.3220   -0.3339    1.2571 O.2       1 <0>        -1.0277
      5 O2         -2.3456   -0.3206   -1.2120 O.2       1 <0>        -1.0262
      6 N1         -1.5451   -2.2807    0.0046 N.2       1 <0>        -1.0975
      7 C3         -2.6842   -3.0890    0.0111 C.ar      1 <0>         0.3167
      8 C4         -3.9478   -2.5114    0.0205 C.ar      1 <0>        -0.2807
      9 C5         -5.0718   -3.3134    0.0264 C.ar      1 <0>         0.0194
     10 C6         -4.9408   -4.6902    0.0235 C.ar      1 <0>        -0.7144
     11 C7         -3.6849   -5.2684    0.0147 C.ar      1 <0>         0.0535
     12 C8         -2.5564   -4.4720    0.0025 C.ar      1 <0>        -0.2081
     13 C9         -3.5471   -6.7690    0.0126 C.3       1 <0>        -0.1525
     14 S2         -6.3778   -5.7099    0.0318 S.o2      1 <0>         2.6243
     15 O3         -6.1837   -6.6770    1.0546 O.2       1 <0>        -1.0371
     16 O4         -7.4970   -4.8346    0.0135 O.2       1 <0>        -1.0423
     17 N2         -6.3999   -6.5364   -1.4031 N.2       1 <0>        -1.0714
     18 C10        -7.4376   -7.4316   -1.6781 C.ar      1 <0>         0.2479
     19 C11        -7.4630   -8.1364   -2.8796 C.ar      1 <0>        -0.1465
     20 C12        -8.5114   -9.0118   -3.1070 C.ar      1 <0>        -0.1042
     21 C13        -9.4922   -9.1570   -2.1410 C.ar      1 <0>         0.0495
     22 N3         -9.4390   -8.4741   -1.0135 N.ar      1 <0>        -0.4368
     23 C14        -8.4548   -7.6353   -0.7555 C.ar      1 <0>        -0.0343
     24 Cl1       -10.8105  -10.2523   -2.4173 Cl        1 <0>        -0.0930
     25 H1          1.0039    1.9031    0.0027 H         1 <0>         0.0653
     26 H2         -0.5459    1.8868   -0.8726 H         1 <0>         0.0639
     27 H3         -0.5289    1.8773    0.9072 H         1 <0>         0.0636
     28 H4          0.5123   -0.3556   -0.8948 H         1 <0>         0.1182
     29 H5          0.5293   -0.3651    0.8851 H         1 <0>         0.1178
     30 H6         -4.0507   -1.4363    0.0234 H         1 <0>         0.1024
     31 H7         -6.0543   -2.8650    0.0337 H         1 <0>         0.1176
     32 H8         -1.5757   -4.9242   -0.0093 H         1 <0>         0.1128
     33 H9         -3.5207   -7.1300   -1.0156 H         1 <0>         0.0771
     34 H10        -2.6242   -7.0499    0.5200 H         1 <0>         0.0585
     35 H11        -4.3967   -7.2126    0.5318 H         1 <0>         0.0995
     36 H12        -6.6842   -8.0030   -3.6159 H         1 <0>         0.1318
     37 H13        -8.5635   -9.5745   -4.0273 H         1 <0>         0.1216
     38 H14        -8.4424   -7.0978    0.1812 H         1 <0>         0.1346
@<TRIPOS>BOND
     1    1    2 1
     2    1   25 1
     3    1   26 1
     4    1   27 1
     5    2    3 1
     6    2   28 1
     7    2   29 1
     8    3    4 2
     9    3    5 2
    10    3    6 1
    11    6    7 1
    12    7   12 ar
    13    7    8 ar
    14    8    9 ar
    15    8   30 1
    16    9   10 ar
    17    9   31 1
    18   10   11 ar
    19   10   14 1
    20   11   12 ar
    21   11   13 1
    22   12   32 1
    23   13   33 1
    24   13   34 1
    25   13   35 1
    26   14   15 2
    27   14   16 2
    28   14   17 1
    29   17   18 1
    30   18   23 ar
    31   18   19 ar
    32   19   20 ar
    33   19   36 1
    34   20   21 ar
    35   20   37 1
    36   21   22 ar
    37   21   24 1
    38   22   23 ar
    39   23   38 1
@<TRIPOS>MOLECULE
ZINC13280131
   45    48     0     0     0
SMALL
USER_CHARGES
2-[2-(3,4-difluorophenyl)-2-oxo-ethyl]sulfanyl-3-(4-fluorophenyl)-4-oxo-quinazoline-7-carboxylic acid
@<TRIPOS>ATOM
      1 C1          8.6128   -2.5935   -1.0659 C.ar      1 <0>        -0.0596
      2 C2          8.8234   -3.9583   -1.0720 C.ar      1 <0>        -0.1440
      3 C3          9.6128   -4.5424   -0.0955 C.ar      1 <0>         0.1173
      4 C4         10.1975   -3.7587    0.8852 C.ar      1 <0>        -0.1440
      5 C5          9.9939   -2.3928    0.8914 C.ar      1 <0>        -0.0592
      6 C6          9.2024   -1.8054   -0.0865 C.ar      1 <0>         0.0911
      7 N1          8.9942   -0.4195   -0.0817 N.am      1 <0>        -0.4905
      8 C7          9.8381    0.3884   -0.7642 C.2       1 <0>         0.5594
      9 O1         10.7805   -0.0656   -1.3865 O.2       1 <0>        -0.5011
     10 C8          9.5784    1.8358   -0.7226 C.ar      1 <0>        -0.1921
     11 C9         10.3973    2.7460   -1.3906 C.ar      1 <0>        -0.0617
     12 C10        10.1232    4.0819   -1.3268 C.ar      1 <0>        -0.0839
     13 C11         9.0235    4.5503   -0.5957 C.ar      1 <0>        -0.0647
     14 C12         8.1946    3.6616    0.0773 C.ar      1 <0>        -0.0706
     15 C13         8.4654    2.2916    0.0197 C.ar      1 <0>         0.1353
     16 N2          7.6848    1.3898    0.6602 N.2       1 <0>        -0.5062
     17 C14         7.9366    0.1052    0.6083 C.2       1 <0>         0.3416
     18 S1          6.8676   -0.9965    1.4731 S.3       1 <0>         0.0490
     19 C15         5.7001    0.1908    2.1827 C.3       1 <0>        -0.1628
     20 C16         4.6623   -0.5462    2.9896 C.2       1 <0>         0.4206
     21 O2          4.7076   -1.7549    3.0763 O.2       1 <0>        -0.4263
     22 C17         3.5950    0.2003    3.6715 C.ar      1 <0>        -0.1470
     23 C18         2.6299   -0.4811    4.4215 C.ar      1 <0>        -0.0379
     24 C19         1.6317    0.2232    5.0581 C.ar      1 <0>        -0.1382
     25 C20         1.5809    1.6053    4.9577 C.ar      1 <0>         0.1024
     26 C21         2.5351    2.2890    4.2151 C.ar      1 <0>         0.0628
     27 C22         3.5398    1.5949    3.5729 C.ar      1 <0>        -0.0759
     28 F1          2.4793    3.6356    4.1216 F         1 <0>        -0.1180
     29 F2          0.5959    2.2893    5.5800 F         1 <0>        -0.1204
     30 C23         8.7435    6.0019   -0.5396 C.2       1 <0>         0.4873
     31 O3          7.7918    6.4127    0.0931 O.co2     1 <0>        -0.6199
     32 F3          9.8131   -5.8785   -0.0998 F         1 <0>        -0.1341
     33 H1          7.9932   -2.1389   -1.8247 H         1 <0>         0.1393
     34 H2          8.3686   -4.5712   -1.8362 H         1 <0>         0.1459
     35 H3         10.8127   -4.2161    1.6459 H         1 <0>         0.1460
     36 H4         10.4497   -1.7820    1.6566 H         1 <0>         0.1394
     37 H5         11.2473    2.3947   -1.9567 H         1 <0>         0.1351
     38 H6         10.7595    4.7841   -1.8449 H         1 <0>         0.1448
     39 H7          7.3482    4.0262    0.6404 H         1 <0>         0.1460
     40 H8          5.2518    0.6980    1.4467 H         1 <0>         0.1237
     41 H9          6.2363    0.8859    2.8287 H         1 <0>         0.1409
     42 H10         2.6673   -1.5576    4.5008 H         1 <0>         0.1543
     43 H11         0.8865   -0.3025    5.6367 H         1 <0>         0.1552
     44 H12         4.2814    2.1267    2.9953 H         1 <0>         0.1630
     45 O4          9.5441    6.8679   -1.1902 O.co2     1 <0>        -0.7423
@<TRIPOS>BOND
     1    1    6 ar
     2    1    2 ar
     3    1   33 1
     4    2    3 ar
     5    2   34 1
     6    3    4 ar
     7    3   32 1
     8    4    5 ar
     9    4   35 1
    10    5    6 ar
    11    5   36 1
    12    6    7 1
    13    7   17 1
    14    7    8 am
    15    8    9 2
    16    8   10 1
    17   10   15 ar
    18   10   11 ar
    19   11   12 ar
    20   11   37 1
    21   12   13 ar
    22   12   38 1
    23   13   14 ar
    24   13   30 1
    25   14   15 ar
    26   14   39 1
    27   15   16 1
    28   16   17 2
    29   17   18 1
    30   18   19 1
    31   19   20 1
    32   19   40 1
    33   19   41 1
    34   20   21 2
    35   20   22 1
    36   22   27 ar
    37   22   23 ar
    38   23   24 ar
    39   23   42 1
    40   24   25 ar
    41   24   43 1
    42   25   26 ar
    43   25   29 1
    44   26   27 ar
    45   26   28 1
    46   27   44 1
    47   30   31 2
    48   30   45 1
@<TRIPOS>MOLECULE
ZINC26459029
   47    50     0     0     0
SMALL
USER_CHARGES
(5R)-5-(3,4-dichlorophenyl)-4-(3-fluoro-4-methoxy-benzoyl)-1-(2-furylmethyl)-3-hydroxy-5H-pyrrol-2-one
@<TRIPOS>ATOM
      1 C1          1.1876    7.9806    5.0039 C.3       1 <0>         0.0224
      2 O1          2.1322    8.0787    3.9361 O.3       1 <0>        -0.3101
      3 C2          2.0746    7.1243    2.9726 C.ar      1 <0>         0.1090
      4 C3          1.1251    6.1127    3.0550 C.ar      1 <0>        -0.1976
      5 C4          1.0597    5.1452    2.0775 C.ar      1 <0>        -0.0334
      6 C5          1.9567    5.1744    1.0054 C.ar      1 <0>        -0.1461
      7 C6          2.9108    6.1933    0.9244 C.ar      1 <0>        -0.0699
      8 C7          2.9665    7.1614    1.9042 C.ar      1 <0>         0.0529
      9 F1          3.8876    8.1468    1.8279 F         1 <0>        -0.1354
     10 C8          1.8927    4.1358   -0.0415 C.2       1 <0>         0.5064
     11 O2          2.7148    4.1248   -0.9388 O.2       1 <0>        -0.4670
     12 C9          0.8386    3.1173   -0.0003 C.2       1 <0>        -0.5040
     13 C10         1.0081    1.7872    0.1826 C.2       1 <0>         0.2715
     14 C11        -0.3111    1.1215    0.1574 C.2       1 <0>         0.5129
     15 O3         -0.4925   -0.0721    0.2937 O.2       1 <0>        -0.5201
     16 N1         -1.2810    2.0317   -0.0447 N.am      1 <0>        -0.6116
     17 C12        -0.6463    3.3506   -0.1533 C.3       1 <0>         0.2669
     18 H1         -1.0419    4.0254    0.6200 H         1 <0>         0.0762
     19 C13        -0.9398    3.9532   -1.5031 C.ar      1 <0>        -0.0607
     20 C14        -1.2713    5.2916   -1.6049 C.ar      1 <0>        -0.0993
     21 C15        -1.5406    5.8455   -2.8421 C.ar      1 <0>        -0.0991
     22 C16        -1.4786    5.0606   -3.9797 C.ar      1 <0>        -0.0373
     23 C17        -1.1466    3.7204   -3.8778 C.ar      1 <0>        -0.0277
     24 C18        -0.8718    3.1690   -2.6391 C.ar      1 <0>        -0.0705
     25 Cl1        -1.0683    2.7342   -5.3042 Cl        1 <0>        -0.0561
     26 Cl2        -1.8174    5.7557   -5.5340 Cl        1 <0>        -0.0616
     27 C19        -2.7169    1.7558   -0.1364 C.3       1 <0>         0.2088
     28 C20        -3.3335    1.8410    1.2360 C.2       1 <0>        -0.0219
     29 C21        -3.8498    2.9482    1.7990 C.2       1 <0>        -0.2003
     30 C22        -4.3151    2.5768    3.0814 C.2       1 <0>        -0.2183
     31 C23        -4.0553    1.2648    3.2253 C.2       1 <0>        -0.0401
     32 O4         -3.4659    0.8232    2.1022 O.3       1 <0>        -0.1649
     33 O5          2.1966    1.1656    0.3609 O.3       1 <0>        -0.6428
     34 H2          1.3440    8.8101    5.7092 H         1 <0>         0.1018
     35 H3          1.3246    7.0231    5.5278 H         1 <0>         0.0596
     36 H4          0.1671    8.0330    4.5966 H         1 <0>         0.0591
     37 H5          0.4348    6.0877    3.8852 H         1 <0>         0.1390
     38 H6          0.3185    4.3621    2.1409 H         1 <0>         0.1443
     39 H7          3.6026    6.2220    0.0956 H         1 <0>         0.1499
     40 H8         -1.3195    5.9047   -0.7171 H         1 <0>         0.1369
     41 H9         -1.7999    6.8910   -2.9209 H         1 <0>         0.1393
     42 H10        -0.6084    2.1246   -2.5593 H         1 <0>         0.1392
     43 H11        -3.1909    2.4959   -0.7979 H         1 <0>         0.1099
     44 H12        -2.8710    0.7464   -0.5456 H         1 <0>         0.0989
     45 H13        -3.8989    3.9322    1.3566 H         1 <0>         0.1469
     46 H14        -4.7880    3.2225    3.8064 H         1 <0>         0.1454
     47 H15        -4.2862    0.6669    4.0945 H         1 <0>         0.1986
@<TRIPOS>BOND
     1    1    2 1
     2    1   34 1
     3    1   35 1
     4    1   36 1
     5    2    3 1
     6    3    8 ar
     7    3    4 ar
     8    4    5 ar
     9    4   37 1
    10    5    6 ar
    11    5   38 1
    12    6    7 ar
    13    6   10 1
    14    7    8 ar
    15    7   39 1
    16    8    9 1
    17   10   11 2
    18   10   12 1
    19   12   17 1
    20   12   13 2
    21   13   14 1
    22   13   33 1
    23   14   15 2
    24   14   16 am
    25   16   17 1
    26   16   27 1
    27   17   18 1
    28   17   19 1
    29   19   24 ar
    30   19   20 ar
    31   20   21 ar
    32   20   40 1
    33   21   22 ar
    34   21   41 1
    35   22   23 ar
    36   22   26 1
    37   23   24 ar
    38   23   25 1
    39   24   42 1
    40   27   28 1
    41   27   43 1
    42   27   44 1
    43   28   32 1
    44   28   29 2
    45   29   30 1
    46   29   45 1
    47   30   31 2
    48   30   46 1
    49   31   32 1
    50   31   47 1
@<TRIPOS>MOLECULE
ZINC38621154
   47    49     0     0     0
SMALL
USER_CHARGES

@<TRIPOS>ATOM
      1 C1          0.3014    1.7268   -0.0958 C.3       1 <0>        -0.1510
      2 C2          0.2619    0.1975   -0.0725 C.3       1 <0>         0.0566
      3 O1          0.8989   -0.3134   -1.2451 O.3       1 <0>        -0.3889
      4 C3          0.9165   -1.7402   -1.3223 C.3       1 <0>         0.0708
      5 C4          1.6188   -2.1727   -2.6109 C.3       1 <0>        -0.1285
      6 C5          1.6377   -3.7004   -2.6935 C.3       1 <0>         0.1106
      7 N1          2.3101   -4.1145   -3.9273 N.am      1 <0>        -0.5230
      8 C6          1.5833   -4.2792   -5.0583 C.2       1 <0>         0.5287
      9 C7          2.1852   -4.6728   -6.2553 C.2       1 <0>        -0.4099
     10 C8          3.5692   -4.9064   -6.3043 C.2       1 <0>         0.1424
     11 C9          4.3205   -4.7382   -5.1453 C.2       1 <0>        -0.3051
     12 C10         3.6408   -4.3194   -3.9188 C.2       1 <0>         0.5722
     13 O2          4.2766   -4.1607   -2.8918 O.2       1 <0>        -0.5595
     14 C11         5.7341   -4.9668   -5.1535 C.1       1 <0>         0.3145
     15 N2          6.8556   -5.1481   -5.1600 N.1       1 <0>        -0.4909
     16 C12         4.2293   -5.3325   -7.5902 C.3       1 <0>        -0.1362
     17 C13         1.3679   -4.8437   -7.4673 C.2       1 <0>         0.5237
     18 O3          0.5449   -5.7396   -7.5255 O.2       1 <0>        -0.4172
     19 C14         1.5446   -3.9344   -8.6059 C.2       1 <0>        -0.1692
     20 C15         0.8324   -3.8780   -9.7658 C.2       1 <0>        -0.0133
     21 C16         1.1624   -2.9227  -10.7446 C.ar      1 <0>        -0.0903
     22 C17         2.2476   -2.0734  -10.4219 C.ar      1 <0>        -0.1096
     23 S1          2.7402   -2.6254   -8.8083 S.3       1 <0>         0.1516
     24 C18         2.6887   -1.0880  -11.2786 C.ar      1 <0>        -0.0724
     25 C19         2.0606   -0.9122  -12.4955 C.ar      1 <0>        -0.0765
     26 C20         0.9926   -1.7311  -12.8392 C.ar      1 <0>        -0.1193
     27 C21         0.5460   -2.7072  -12.0050 C.ar      1 <0>         0.0182
     28 Cl1        -0.7929   -3.7018  -12.4868 Cl        1 <0>        -0.0521
     29 Cl2        -0.4791   -4.9829  -10.0358 Cl        1 <0>        -0.0193
     30 O4          0.2551   -4.0596   -5.0278 O.3       1 <0>        -0.6361
     31 H1          1.3379    2.0631   -0.1220 H         1 <0>         0.0620
     32 H2         -0.2210    2.0903   -0.9807 H         1 <0>         0.0623
     33 H3         -0.1845    2.1165    0.7987 H         1 <0>         0.0677
     34 H4          0.7843   -0.1660    0.8124 H         1 <0>         0.0460
     35 H5         -0.7746   -0.1388   -0.0463 H         1 <0>         0.0464
     36 H6          1.4525   -2.1439   -0.4633 H         1 <0>         0.0496
     37 H7         -0.1064   -2.1167   -1.3220 H         1 <0>         0.0512
     38 H8          1.0829   -1.7690   -3.4699 H         1 <0>         0.0780
     39 H9          2.6417   -1.7962   -2.6112 H         1 <0>         0.0737
     40 H10         2.1736   -4.1041   -1.8345 H         1 <0>         0.0879
     41 H11         0.6148   -4.0769   -2.6932 H         1 <0>         0.0946
     42 H12         4.6264   -4.4562   -8.1025 H         1 <0>         0.0866
     43 H13         5.0425   -6.0239   -7.3695 H         1 <0>         0.0764
     44 H14         3.4964   -5.8256   -8.2288 H         1 <0>         0.0691
     45 H15         3.5200   -0.4574  -10.9997 H         1 <0>         0.1427
     46 H16         2.3970   -0.1432  -13.1751 H         1 <0>         0.1452
     47 H17         0.5052   -1.5889  -13.7924 H         1 <0>         0.1394
@<TRIPOS>BOND
     1    1    2 1
     2    1   31 1
     3    1   32 1
     4    1   33 1
     5    2    3 1
     6    2   34 1
     7    2   35 1
     8    3    4 1
     9    4    5 1
    10    4   36 1
    11    4   37 1
    12    5    6 1
    13    5   38 1
    14    5   39 1
    15    6    7 1
    16    6   40 1
    17    6   41 1
    18    7   12 am
    19    7    8 1
    20    8    9 2
    21    8   30 1
    22    9   10 1
    23    9   17 1
    24   10   11 2
    25   10   16 1
    26   11   12 1
    27   11   14 1
    28   12   13 2
    29   14   15 3
    30   16   42 1
    31   16   43 1
    32   16   44 1
    33   17   18 2
    34   17   19 1
    35   19   23 1
    36   19   20 2
    37   20   21 1
    38   20   29 1
    39   21   27 ar
    40   21   22 ar
    41   22   23 1
    42   22   24 ar
    43   24   25 ar
    44   24   45 1
    45   25   26 ar
    46   25   46 1
    47   26   27 ar
    48   26   47 1
    49   27   28 1
@<TRIPOS>MOLECULE
ZINC39999876
   45    48     0     0     0
SMALL
USER_CHARGES

@<TRIPOS>ATOM
      1 C1         -0.2487    1.5386    0.6453 C.3       1 <0>        -0.1379
      2 C2         -0.1922    0.0173    0.4921 C.3       1 <0>        -0.1143
      3 S1         -1.8568   -0.6734    0.6989 S.3       1 <0>         0.0298
      4 C3         -1.6263   -2.4086    0.4971 C.2       1 <0>        -0.0249
      5 N1         -0.5205   -3.0992    0.2569 N.2       1 <0>        -0.2497
      6 N2         -0.5312   -4.3549    0.1392 N.2       1 <0>        -0.3094
      7 C4         -1.6461   -5.0600    0.2481 C.2       1 <0>         0.3192
      8 S2         -2.8176   -3.7436    0.5656 S.3       1 <0>         0.0872
      9 N3         -1.8489   -6.4314    0.1493 N.am      1 <0>        -0.4996
     10 C5         -0.8144   -7.4411   -0.1040 C.3       1 <0>         0.2702
     11 H1         -0.0701   -7.4231    0.6922 H         1 <0>         0.0939
     12 C6         -1.5238   -8.7751   -0.1220 C.2       1 <0>        -0.4860
     13 C7         -2.8357   -8.5225    0.1020 C.2       1 <0>         0.2751
     14 C8         -3.0272   -7.0684    0.2748 C.2       1 <0>         0.5126
     15 O1         -4.0926   -6.5268    0.4954 O.2       1 <0>        -0.4823
     16 O2         -3.8144   -9.4546    0.1625 O.3       1 <0>        -0.6289
     17 C9         -0.9112  -10.0880   -0.3396 C.2       1 <0>         0.5082
     18 O3         -1.1763  -10.7244   -1.3423 O.2       1 <0>        -0.4599
     19 C10         0.0289  -10.6395    0.6588 C.ar      1 <0>        -0.1303
     20 C11         0.2348   -9.9751    1.8702 C.ar      1 <0>        -0.0498
     21 C12         1.1126  -10.4949    2.7976 C.ar      1 <0>        -0.1250
     22 C13         1.7897  -11.6736    2.5301 C.ar      1 <0>        -0.0178
     23 C14         1.5897  -12.3373    1.3305 C.ar      1 <0>        -0.1255
     24 C15         0.7106  -11.8304    0.3973 C.ar      1 <0>        -0.0599
     25 Cl1         2.8938  -12.3214    3.7027 Cl        1 <0>        -0.0790
     26 C16        -0.1552   -7.1852   -1.4348 C.ar      1 <0>        -0.0999
     27 C17        -0.8423   -6.5144   -2.4290 C.ar      1 <0>        -0.0733
     28 C18        -0.2380   -6.2796   -3.6497 C.ar      1 <0>        -0.1262
     29 C19         1.0542   -6.7152   -3.8779 C.ar      1 <0>        -0.0968
     30 C20         1.7432   -7.3856   -2.8853 C.ar      1 <0>        -0.1519
     31 C21         1.1407   -7.6169   -1.6601 C.ar      1 <0>         0.1122
     32 F1          1.8151   -8.2681   -0.6873 F         1 <0>        -0.1341
     33 H2          0.7515    1.9536    0.5210 H         1 <0>         0.0792
     34 H3         -0.9119    1.9557   -0.1126 H         1 <0>         0.0668
     35 H4         -0.6259    1.7902    1.6365 H         1 <0>         0.0668
     36 H5          0.1850   -0.2343   -0.4991 H         1 <0>         0.0956
     37 H6          0.4710   -0.3998    1.2499 H         1 <0>         0.0956
     38 H7         -0.2922   -9.0560    2.0796 H         1 <0>         0.1399
     39 H8          1.2729   -9.9819    3.7344 H         1 <0>         0.1343
     40 H9          2.1207  -13.2556    1.1276 H         1 <0>         0.1337
     41 H10         0.5524  -12.3508   -0.5358 H         1 <0>         0.1394
     42 H11        -1.8519   -6.1740   -2.2520 H         1 <0>         0.1165
     43 H12        -0.7758   -5.7557   -4.4261 H         1 <0>         0.1245
     44 H13         1.5251   -6.5318   -4.8323 H         1 <0>         0.1285
     45 H14         2.7525   -7.7261   -3.0638 H         1 <0>         0.1330
@<TRIPOS>BOND
     1    1    2 1
     2    1   33 1
     3    1   34 1
     4    1   35 1
     5    2    3 1
     6    2   36 1
     7    2   37 1
     8    3    4 1
     9    4    8 1
    10    4    5 2
    11    5    6 1
    12    6    7 2
    13    7    8 1
    14    7    9 1
    15    9   14 am
    16    9   10 1
    17   10   11 1
    18   10   12 1
    19   10   26 1
    20   12   13 2
    21   12   17 1
    22   13   14 1
    23   13   16 1
    24   14   15 2
    25   17   18 2
    26   17   19 1
    27   19   24 ar
    28   19   20 ar
    29   20   21 ar
    30   20   38 1
    31   21   22 ar
    32   21   39 1
    33   22   23 ar
    34   22   25 1
    35   23   24 ar
    36   23   40 1
    37   24   41 1
    38   26   31 ar
    39   26   27 ar
    40   27   28 ar
    41   27   42 1
    42   28   29 ar
    43   28   43 1
    44   29   30 ar
    45   29   44 1
    46   30   31 ar
    47   30   45 1
    48   31   32 1
@<TRIPOS>MOLECULE
ZINC39731365
   57    61     0     0     0
SMALL
USER_CHARGES

@<TRIPOS>ATOM
      1 C1         -0.0187    1.5258    0.0104 C.3       1 <0>        -0.1496
      2 C2          0.0021   -0.0041    0.0020 C.3       1 <0>         0.0543
      3 O1         -1.3386   -0.4987    0.0122 O.3       1 <0>        -0.3195
      4 C3         -1.4983   -1.8483    0.0064 C.ar      1 <0>         0.1171
      5 C4         -0.3876   -2.6794   -0.0028 C.ar      1 <0>        -0.2099
      6 C5         -0.5526   -4.0509   -0.0082 C.ar      1 <0>        -0.0546
      7 C6         -1.8235   -4.5955   -0.0047 C.ar      1 <0>        -0.0944
      8 C7         -2.9322   -3.7693    0.0041 C.ar      1 <0>        -0.0837
      9 C8         -2.7724   -2.3972    0.0157 C.ar      1 <0>        -0.1510
     10 C9         -2.0007   -6.0920   -0.0110 C.3       1 <0>         0.0697
     11 H1         -1.0248   -6.5776   -0.0180 H         1 <0>         0.1005
     12 C10        -2.7925   -6.5110   -1.2455 C.3       1 <0>        -0.2170
     13 H2         -2.7726   -7.5989   -1.3099 H         1 <0>         0.1161
     14 C11        -4.2242   -6.0755   -1.0957 C.2       1 <0>         0.4930
     15 N1         -4.8602   -5.5070   -2.0990 N.2       1 <0>        -0.6137
     16 C12        -4.2465   -5.1929   -3.2396 C.2       1 <0>         0.4338
     17 N2         -2.9443   -5.3773   -3.4205 N.2       1 <0>        -0.6823
     18 C13        -2.2014   -5.9569   -2.5032 C.2       1 <0>         0.5264
     19 O2         -1.0039   -6.0502   -2.6930 O.2       1 <0>        -0.5056
     20 S1         -5.1981   -4.5089   -4.5554 S.3       1 <0>         0.0092
     21 C14        -3.9873   -4.2410   -5.8794 C.3       1 <0>        -0.0695
     22 C15        -4.6793   -3.6506   -7.0810 C.ar      1 <0>        -0.1062
     23 C16        -5.2152   -4.4809   -8.0473 C.ar      1 <0>        -0.0722
     24 C17        -5.8500   -3.9397   -9.1495 C.ar      1 <0>        -0.1317
     25 C18        -5.9495   -2.5675   -9.2867 C.ar      1 <0>        -0.0880
     26 C19        -5.4149   -1.7355   -8.3217 C.ar      1 <0>        -0.1562
     27 C20        -4.7834   -2.2766   -7.2144 C.ar      1 <0>         0.1180
     28 F1         -4.2644   -1.4643   -6.2679 F         1 <0>        -0.1296
     29 N3         -4.8272   -6.2100    0.0812 N.2       1 <0>        -0.6076
     30 C21        -4.1746   -6.5361    1.1815 C.2       1 <0>         0.2995
     31 C22        -2.7753   -6.5198    1.2183 C.2       1 <0>        -0.3821
     32 C23        -2.0891   -6.8769    2.3285 C.2       1 <0>         0.3475
     33 O3         -0.7439   -6.8700    2.3050 O.3       1 <0>        -0.6050
     34 C24        -2.8046   -7.2821    3.5893 C.3       1 <0>        -0.1355
     35 C25        -4.1352   -6.5253    3.6674 C.3       1 <0>        -0.1116
     36 C26        -4.9649   -6.8662    2.4243 C.3       1 <0>        -0.0831
     37 H3          1.0039    1.9031    0.0027 H         1 <0>         0.0747
     38 H4         -0.5459    1.8868   -0.8726 H         1 <0>         0.0648
     39 H5         -0.5289    1.8773    0.9072 H         1 <0>         0.0642
     40 H6          0.5123   -0.3556   -0.8948 H         1 <0>         0.0590
     41 H7          0.5293   -0.3651    0.8851 H         1 <0>         0.0587
     42 H8          0.6053   -2.2545   -0.0062 H         1 <0>         0.1213
     43 H9          0.3118   -4.6984   -0.0154 H         1 <0>         0.1228
     44 H10        -3.9238   -4.1971    0.0064 H         1 <0>         0.1337
     45 H11        -3.6386   -1.7523    0.0270 H         1 <0>         0.1235
     46 H12        -3.2146   -3.5553   -5.5318 H         1 <0>         0.1079
     47 H13        -3.5321   -5.1927   -6.1535 H         1 <0>         0.1093
     48 H14        -5.1377   -5.5529   -7.9414 H         1 <0>         0.1367
     49 H15        -6.2681   -4.5892   -9.9043 H         1 <0>         0.1311
     50 H16        -6.4451   -2.1457  -10.1487 H         1 <0>         0.1322
     51 H17        -5.4925   -0.6637   -8.4292 H         1 <0>         0.1365
     52 H18        -2.9951   -8.3552    3.5725 H         1 <0>         0.0879
     53 H19        -2.1906   -7.0316    4.4544 H         1 <0>         0.0828
     54 H20        -4.6768   -6.8285    4.5634 H         1 <0>         0.0755
     55 H21        -3.9449   -5.4524    3.6969 H         1 <0>         0.0696
     56 H22        -5.8877   -6.2862    2.4322 H         1 <0>         0.0925
     57 H23        -5.2051   -7.9294    2.4298 H         1 <0>         0.0898
@<TRIPOS>BOND
     1    1    2 1
     2    1   37 1
     3    1   38 1
     4    1   39 1
     5    2    3 1
     6    2   40 1
     7    2   41 1
     8    3    4 1
     9    4    9 ar
    10    4    5 ar
    11    5    6 ar
    12    5   42 1
    13    6    7 ar
    14    6   43 1
    15    7    8 ar
    16    7   10 1
    17    8    9 ar
    18    8   44 1
    19    9   45 1
    20   10   11 1
    21   10   31 1
    22   10   12 1
    23   12   13 1
    24   12   18 1
    25   12   14 1
    26   14   15 2
    27   14   29 1
    28   15   16 1
    29   16   17 2
    30   16   20 1
    31   17   18 1
    32   18   19 2
    33   20   21 1
    34   21   22 1
    35   21   46 1
    36   21   47 1
    37   22   27 ar
    38   22   23 ar
    39   23   24 ar
    40   23   48 1
    41   24   25 ar
    42   24   49 1
    43   25   26 ar
    44   25   50 1
    45   26   27 ar
    46   26   51 1
    47   27   28 1
    48   29   30 2
    49   30   36 1
    50   30   31 1
    51   31   32 2
    52   32   33 1
    53   32   34 1
    54   34   35 1
    55   34   52 1
    56   34   53 1
    57   35   36 1
    58   35   54 1
    59   35   55 1
    60   36   56 1
    61   36   57 1
@<TRIPOS>MOLECULE
ZINC13392292
   47    49     0     0     0
SMALL
USER_CHARGES
2-[[1-(4-fluorobenzoyl)piperidine-4-carbonyl]amino]terephthalic acid
@<TRIPOS>ATOM
      1 C1         -0.5733    3.5508    1.4834 C.ar      1 <0>        -0.0641
      2 C2         -1.5018    4.0541    2.3692 C.ar      1 <0>        -0.1610
      3 C3         -1.0999    4.5039    3.6176 C.ar      1 <0>         0.1183
      4 C4          0.2359    4.4441    3.9847 C.ar      1 <0>        -0.1607
      5 C5          1.1717    3.9369    3.1090 C.ar      1 <0>        -0.0340
      6 C6          0.7724    3.4829    1.8501 C.ar      1 <0>        -0.1376
      7 C7          1.7710    2.9383    0.9075 C.2       1 <0>         0.5608
      8 O1          2.9022    3.3833    0.8961 O.2       1 <0>        -0.5384
      9 N1          1.4279    1.9480    0.0601 N.am      1 <0>        -0.6010
     10 C8          0.1025    1.3190    0.1411 C.3       1 <0>         0.0894
     11 C9          0.2829   -0.1973    0.2634 C.3       1 <0>        -0.1151
     12 C10         1.1471   -0.6993   -0.8956 C.3       1 <0>        -0.1027
     13 C11         2.5273   -0.0416   -0.8272 C.3       1 <0>        -0.1290
     14 C12         2.3723    1.4765   -0.9619 C.3       1 <0>         0.1153
     15 C13         1.2985   -2.1955   -0.7975 C.2       1 <0>         0.5037
     16 O2          0.7678   -2.8005    0.1097 O.2       1 <0>        -0.5305
     17 N2          2.0238   -2.8611   -1.7180 N.am      1 <0>        -0.6398
     18 C14         2.0697   -4.2532   -1.6950 C.ar      1 <0>         0.1451
     19 C15         2.1102   -4.9280   -0.4833 C.ar      1 <0>        -0.0976
     20 C16         2.1555   -6.3201   -0.4646 C.ar      1 <0>        -0.1068
     21 C17         2.1597   -7.0376   -1.6640 C.ar      1 <0>        -0.1078
     22 C18         2.1201   -6.3728   -2.8685 C.ar      1 <0>        -0.0835
     23 C19         2.0692   -4.9768   -2.8965 C.ar      1 <0>        -0.1488
     24 C20         2.0207   -4.2646   -4.1884 C.2       1 <0>         0.5042
     25 O3          2.0576   -3.0506   -4.2145 O.co2     1 <0>        -0.6445
     26 C21         2.1987   -7.0403    0.8271 C.2       1 <0>         0.4968
     27 O4          2.1946   -6.4179    1.8699 O.co2     1 <0>        -0.6353
     28 F1         -2.0131    5.0019    4.4797 F         1 <0>        -0.1371
     29 H1         -0.8867    3.2054    0.5093 H         1 <0>         0.1492
     30 H2         -2.5436    4.1026    2.0884 H         1 <0>         0.1427
     31 H3          0.5435    4.7952    4.9586 H         1 <0>         0.1417
     32 H4          2.2119    3.8904    3.3960 H         1 <0>         0.1436
     33 H5         -0.4662    1.5478   -0.7602 H         1 <0>         0.0770
     34 H6         -0.4278    1.6957    1.0158 H         1 <0>         0.0995
     35 H7          0.7719   -0.4303    1.2093 H         1 <0>         0.0777
     36 H8         -0.6918   -0.6837    0.2277 H         1 <0>         0.0877
     37 H9          0.6697   -0.4441   -1.8416 H         1 <0>         0.1021
     38 H10         2.9951   -0.2761    0.1289 H         1 <0>         0.0750
     39 H11         3.1499   -0.4172   -1.6392 H         1 <0>         0.0881
     40 H12         3.3396    1.9570   -0.8151 H         1 <0>         0.0972
     41 H13         1.9887    1.7181   -1.9532 H         1 <0>         0.0763
     42 H14         2.5139   -2.3709   -2.3966 H         1 <0>         0.4187
     43 H15         2.1062   -4.3747    0.4441 H         1 <0>         0.1363
     44 H16         2.1946   -8.1169   -1.6457 H         1 <0>         0.1250
     45 H17         2.1236   -6.9310   -3.7930 H         1 <0>         0.1268
     46 O5          1.9354   -4.9609   -5.3387 O.co2     1 <0>        -0.7576
     47 O6          2.2425   -8.3864    0.8465 O.co2     1 <0>        -0.7656
@<TRIPOS>BOND
     1    1    6 ar
     2    1    2 ar
     3    1   29 1
     4    2    3 ar
     5    2   30 1
     6    3    4 ar
     7    3   28 1
     8    4    5 ar
     9    4   31 1
    10    5    6 ar
    11    5   32 1
    12    6    7 1
    13    7    8 2
    14    7    9 am
    15    9   14 1
    16    9   10 1
    17   10   11 1
    18   10   33 1
    19   10   34 1
    20   11   12 1
    21   11   35 1
    22   11   36 1
    23   12   13 1
    24   12   15 1
    25   12   37 1
    26   13   14 1
    27   13   38 1
    28   13   39 1
    29   14   40 1
    30   14   41 1
    31   15   16 2
    32   15   17 am
    33   17   18 1
    34   17   42 1
    35   18   23 ar
    36   18   19 ar
    37   19   20 ar
    38   19   43 1
    39   20   21 ar
    40   20   26 1
    41   21   22 ar
    42   21   44 1
    43   22   23 ar
    44   22   45 1
    45   23   24 1
    46   24   25 2
    47   24   46 1
    48   26   27 2
    49   26   47 1
@<TRIPOS>MOLECULE
ZINC22288881
   41    43     0     0     0
SMALL
USER_CHARGES
4-[(5E)-5-[(5-chloro-2-prop-2-ynoxy-phenyl)methylene]-2,4,6-trioxo-hexahydropyrimidin-1-yl]benzoic acid
@<TRIPOS>ATOM
      1 C1          1.0777    2.2001   -5.4675 C.1       1 <0>        -0.1682
      2 C2          0.8881    2.7954   -4.4736 C.1       1 <0>        -0.2027
      3 C3          0.6504    3.5418   -3.2273 C.3       1 <0>         0.1703
      4 O1          1.7663    3.3730   -2.3507 O.3       1 <0>        -0.3002
      5 C4          1.7065    4.0005   -1.1502 C.ar      1 <0>         0.1516
      6 C5          0.5985    4.7645   -0.8177 C.ar      1 <0>        -0.2135
      7 C6          0.5382    5.4033    0.4049 C.ar      1 <0>        -0.0620
      8 C7          1.5823    5.2881    1.3124 C.ar      1 <0>        -0.0758
      9 C8          2.6922    4.5342    1.0036 C.ar      1 <0>         0.0261
     10 C9          2.7665    3.8749   -0.2327 C.ar      1 <0>        -0.0721
     11 C10         3.9385    3.0676   -0.5676 C.2       1 <0>         0.0278
     12 C11         5.2076    3.5864   -0.3935 C.2       1 <0>        -0.2455
     13 C12         5.4208    5.0124   -0.0761 C.2       1 <0>         0.5287
     14 O2          4.4796    5.7740    0.0415 O.3       1 <0>        -0.5555
     15 N1          6.6879    5.4464    0.0851 N.2       1 <0>        -0.7024
     16 C13         7.7343    4.6195   -0.0478 C.2       1 <0>         0.6621
     17 O3          8.8503    5.0756    0.1048 O.2       1 <0>        -0.5677
     18 N2          7.6164    3.3167   -0.3395 N.am      1 <0>        -0.5398
     19 C14         6.4103    2.7408   -0.5227 C.2       1 <0>         0.5609
     20 O4          6.3166    1.5572   -0.7867 O.2       1 <0>        -0.5182
     21 C15         8.7695    2.5370   -0.4571 C.ar      1 <0>         0.1419
     22 C16         9.6338    2.7339   -1.5290 C.ar      1 <0>        -0.1144
     23 C17        10.7737    1.9706   -1.6456 C.ar      1 <0>        -0.0708
     24 C18        11.0564    0.9896   -0.6908 C.ar      1 <0>        -0.1206
     25 C19        10.1828    0.7910    0.3821 C.ar      1 <0>        -0.0800
     26 C20         9.0475    1.5617    0.4949 C.ar      1 <0>        -0.1213
     27 C21        12.2735    0.1656   -0.8155 C.2       1 <0>         0.4959
     28 O5         12.5176   -0.6870    0.0150 O.co2     1 <0>        -0.6384
     29 O6         13.1145    0.3584   -1.8504 O.co2     1 <0>        -0.7614
     30 Cl1         1.4878    6.0983    2.8448 Cl        1 <0>        -0.0798
     31 H1          1.2554    1.6423   -6.3988 H         1 <0>         0.2381
     32 H2          0.5237    4.6098   -3.4581 H         1 <0>         0.0884
     33 H3         -0.2595    3.1615   -2.7400 H         1 <0>         0.0876
     34 H4         -0.2194    4.8599   -1.5164 H         1 <0>         0.1338
     35 H5         -0.3281    5.9968    0.6573 H         1 <0>         0.1305
     36 H6          3.5018    4.4469    1.7131 H         1 <0>         0.1380
     37 H7          3.8102    2.0473   -0.9581 H         1 <0>         0.1432
     38 H8          9.4125    3.4892   -2.2685 H         1 <0>         0.1147
     39 H9         11.4466    2.1271   -2.4757 H         1 <0>         0.1313
     40 H10        10.3982    0.0342    1.1219 H         1 <0>         0.1270
     41 H11         8.3718    1.4086    1.3234 H         1 <0>         0.1123
@<TRIPOS>BOND
     1    1    2 3
     2    1   31 1
     3    2    3 1
     4    3    4 1
     5    3   32 1
     6    3   33 1
     7    4    5 1
     8    5   10 ar
     9    5    6 ar
    10    6    7 ar
    11    6   34 1
    12    7    8 ar
    13    7   35 1
    14    8    9 ar
    15    8   30 1
    16    9   10 ar
    17    9   36 1
    18   10   11 1
    19   11   12 2
    20   11   37 1
    21   12   19 1
    22   12   13 1
    23   13   14 1
    24   13   15 2
    25   15   16 1
    26   16   17 2
    27   16   18 am
    28   18   19 am
    29   18   21 1
    30   19   20 2
    31   21   26 ar
    32   21   22 ar
    33   22   23 ar
    34   22   38 1
    35   23   24 ar
    36   23   39 1
    37   24   25 ar
    38   24   27 1
    39   25   26 ar
    40   25   40 1
    41   26   41 1
    42   27   28 2
    43   27   29 1
@<TRIPOS>MOLECULE
ZINC13775100
   46    50     0     0     0
SMALL
USER_CHARGES

@<TRIPOS>ATOM
      1 C1          0.2282    1.4029    1.0384 C.3       1 <0>        -0.0914
      2 C2          0.1843   -0.0779    0.7620 C.ar      1 <0>        -0.1390
      3 C3          0.5683   -0.5619   -0.4746 C.ar      1 <0>        -0.1255
      4 C4          0.5281   -1.9203   -0.7281 C.ar      1 <0>        -0.1342
      5 C5          0.1043   -2.7946    0.2552 C.ar      1 <0>         0.0399
      6 C6         -0.2789   -2.3107    1.4921 C.ar      1 <0>        -0.0588
      7 C7         -0.2346   -0.9528    1.7470 C.ar      1 <0>        -0.1295
      8 C8          0.0595   -4.2753   -0.0215 C.3       1 <0>         0.1586
      9 C9          1.3142   -4.9229    0.5052 C.2       1 <0>        -0.3417
     10 C10         1.5373   -6.2758    0.3114 C.2       1 <0>         0.4615
     11 N1          2.6520   -6.8205    0.8071 N.2       1 <0>        -0.5234
     12 C11         3.5371   -6.1008    1.4567 C.2       1 <0>         0.3710
     13 N2          3.4055   -4.7550    1.6556 N.am      1 <0>        -0.5579
     14 C12         2.2638   -4.1658    1.1868 C.2       1 <0>         0.5356
     15 O1          2.0747   -2.9737    1.3700 O.2       1 <0>        -0.5839
     16 C13         4.5052   -4.0559    2.3310 C.3       1 <0>         0.0957
     17 C14         5.3744   -5.0177    3.1743 C.3       1 <0>        -0.0915
     18 S1          5.0699   -6.5727    2.2356 S.3       1 <0>        -0.1238
     19 O2          0.6430   -7.0320   -0.3670 O.3       1 <0>        -0.6766
     20 C15        -1.1414   -4.8778    0.6611 C.2       1 <0>        -0.3829
     21 C16        -1.0244   -5.4257    1.9275 C.2       1 <0>         0.4662
     22 N3         -2.1057   -5.9670    2.4956 N.2       1 <0>        -0.5268
     23 C17        -3.2684   -5.9770    1.8865 C.2       1 <0>         0.3751
     24 N4         -3.4711   -5.4236    0.6532 N.am      1 <0>        -0.5652
     25 C18        -2.3815   -4.8840    0.0272 C.2       1 <0>         0.5232
     26 O3         -2.4953   -4.4104   -1.0922 O.2       1 <0>        -0.6086
     27 C19        -4.8379   -5.4343    0.1185 C.3       1 <0>         0.0924
     28 C20        -5.7115   -6.5267    0.7782 C.3       1 <0>        -0.0931
     29 S2         -4.8392   -6.6499    2.3956 S.3       1 <0>        -0.1141
     30 O4          0.1628   -5.4134    2.5772 O.3       1 <0>        -0.6325
     31 H1          1.2072    1.6693    1.4365 H         1 <0>         0.0502
     32 H2          0.0509    1.9506    0.1128 H         1 <0>         0.0482
     33 H3         -0.5420    1.6597    1.7657 H         1 <0>         0.0487
     34 H4          0.8995    0.1212   -1.2428 H         1 <0>         0.0933
     35 H5          0.8275   -2.2983   -1.6944 H         1 <0>         0.0978
     36 H6         -0.6104   -2.9938    2.2602 H         1 <0>         0.1082
     37 H7         -0.5304   -0.5750    2.7145 H         1 <0>         0.0919
     38 H8         -0.0119   -4.4421   -1.0963 H         1 <0>         0.0480
     39 H9          5.1337   -3.5759    1.5809 H         1 <0>         0.0747
     40 H10         4.0893   -3.2890    2.9845 H         1 <0>         0.0931
     41 H11         6.4264   -4.7337    3.1469 H         1 <0>         0.1219
     42 H12         5.0098   -5.0915    4.1989 H         1 <0>         0.1024
     43 H13        -5.2950   -4.4607    0.2948 H         1 <0>         0.0784
     44 H14        -4.7968   -5.6144   -0.9558 H         1 <0>         0.0954
     45 H15        -6.7415   -6.1929    0.9040 H         1 <0>         0.1246
     46 H16        -5.6640   -7.4647    0.2250 H         1 <0>         0.1045
@<TRIPOS>BOND
     1    1    2 1
     2    1   31 1
     3    1   32 1
     4    1   33 1
     5    2    7 ar
     6    2    3 ar
     7    3    4 ar
     8    3   34 1
     9    4    5 ar
    10    4   35 1
    11    5    6 ar
    12    5    8 1
    13    6    7 ar
    14    6   36 1
    15    7   37 1
    16    8    9 1
    17    8   38 1
    18    8   20 1
    19    9   14 1
    20    9   10 2
    21   10   11 1
    22   10   19 1
    23   11   12 2
    24   12   18 1
    25   12   13 1
    26   13   14 am
    27   13   16 1
    28   14   15 2
    29   16   17 1
    30   16   39 1
    31   16   40 1
    32   17   18 1
    33   17   41 1
    34   17   42 1
    35   20   25 1
    36   20   21 2
    37   21   30 1
    38   21   22 1
    39   22   23 2
    40   23   29 1
    41   23   24 1
    42   24   25 am
    43   24   27 1
    44   25   26 2
    45   27   28 1
    46   27   43 1
    47   27   44 1
    48   28   45 1
    49   28   46 1
    50   28   29 1
@<TRIPOS>MOLECULE
ZINC44830949
   60    63     0     0     0
SMALL
USER_CHARGES

@<TRIPOS>ATOM
      1 C1         -0.0479    1.4825   -0.0416 C.3       1 <0>        -0.1473
      2 C2         -0.0151   -0.0469   -0.0050 C.3       1 <0>        -0.1207
      3 H1          0.4767   -0.4290   -0.9008 H         1 <0>         0.0920
      4 C3         -1.4497   -0.6075    0.0918 C.3       1 <0>        -0.1167
      5 C4         -1.5670   -1.1615    1.5256 C.3       1 <0>        -0.0694
      6 H2         -1.8090   -0.3329    2.1979 H         1 <0>         0.0895
      7 C5         -2.6336   -2.2100    1.6404 C.3       1 <0>        -0.0957
      8 H3         -3.5154   -1.8207    1.0937 H         1 <0>         0.0857
      9 C6         -3.0871   -2.4198    3.0907 C.3       1 <0>        -0.1189
     10 C7         -4.5346   -2.9203    2.9864 C.3       1 <0>        -0.0921
     11 C8         -4.5587   -4.1260    2.0819 C.2       1 <0>        -0.0295
     12 C9         -5.6974   -4.8515    2.0760 C.2       1 <0>        -0.2414
     13 C10        -5.7278   -6.0447    1.1944 C.2       1 <0>         0.4154
     14 O1         -6.3271   -7.0635    1.4952 O.2       1 <0>        -0.4614
     15 C11        -4.9797   -5.9129   -0.0828 C.2       1 <0>        -0.2395
     16 C12        -3.8451   -5.1926   -0.0472 C.2       1 <0>        -0.0539
     17 C13        -3.4025   -4.5648    1.2475 C.3       1 <0>        -0.0287
     18 C14        -2.3028   -3.5558    1.0141 C.3       1 <0>         0.1758
     19 C15        -0.9167   -4.0276    1.4247 C.3       1 <0>         0.0956
     20 H4         -0.8522   -4.2449    2.4857 H         1 <0>         0.0808
     21 C16         0.1280   -2.9497    1.0946 C.3       1 <0>        -0.1554
     22 C17        -0.1464   -1.6573    1.8520 C.3       1 <0>        -0.0217
     23 C18         0.7340   -0.5294    1.2507 C.3       1 <0>         0.0975
     24 C19         2.1068   -1.0228    0.8913 C.2       1 <0>         0.3258
     25 O2          2.3158   -1.4805   -0.2065 O.2       1 <0>        -0.4229
     26 C20         3.2231   -0.9466    1.9009 C.3       1 <0>         0.0907
     27 O3          4.4213   -1.4727    1.3268 O.3       1 <0>        -0.7429
     28 P1          5.8171   -1.5474    2.1258 P.3       1 <0>         2.1240
     29 O4          6.1902   -0.1224    2.6593 O.2       1 <0>        -1.1857
     30 O5          5.6758   -2.5364    3.3325 O.3       1 <0>        -1.1840
     31 O6          6.9434   -2.0560    1.1628 O.3       1 <0>        -1.1635
     32 O7          0.8383    0.5482    2.1893 O.3       1 <0>        -0.5409
     33 C21         0.0901   -1.7979    3.3577 C.3       1 <0>        -0.1429
     34 O8         -0.5351   -5.1841    0.6592 O.3       1 <0>        -0.5594
     35 F1         -2.2641   -3.3458   -0.3868 F         1 <0>        -0.2009
     36 C22        -2.8099   -5.7219    2.0487 C.3       1 <0>        -0.1656
     37 H5          0.9715    1.8672   -0.0715 H         1 <0>         0.0558
     38 H6         -0.5872    1.8133   -0.9292 H         1 <0>         0.0563
     39 H7         -0.5514    1.8566    0.8499 H         1 <0>         0.0670
     40 H8         -2.1832    0.1852   -0.0693 H         1 <0>         0.0658
     41 H9         -1.5970   -1.4036   -0.6397 H         1 <0>         0.0814
     42 H10        -2.4725   -3.1687    3.5805 H         1 <0>         0.0774
     43 H11        -3.0607   -1.4796    3.6354 H         1 <0>         0.0881
     44 H12        -4.8908   -3.2038    3.9727 H         1 <0>         0.0869
     45 H13        -5.1597   -2.1393    2.5655 H         1 <0>         0.0917
     46 H14        -6.5501   -4.5728    2.6892 H         1 <0>         0.1470
     47 H15        -5.3332   -6.3749   -0.9999 H         1 <0>         0.1466
     48 H16        -3.2486   -5.0698   -0.9477 H         1 <0>         0.1510
     49 H17         1.1032   -3.3524    1.3772 H         1 <0>         0.0810
     50 H18         0.1046   -2.7695    0.0210 H         1 <0>         0.0925
     51 H19         3.3835    0.0928    2.1874 H         1 <0>         0.0699
     52 H20         2.9562   -1.5295    2.7824 H         1 <0>         0.0682
     53 H21         1.3339    1.3103    1.8596 H         1 <0>         0.3804
     54 H22        -0.6199   -2.5138    3.7717 H         1 <0>         0.0545
     55 H23         1.1063   -2.1503    3.5346 H         1 <0>         0.0684
     56 H24        -0.0476   -0.8297    3.8391 H         1 <0>         0.0781
     57 H25         0.3411   -5.5294    0.8785 H         1 <0>         0.3901
     58 H26        -3.5597   -6.5043    2.1658 H         1 <0>         0.0560
     59 H27        -1.9448   -6.1237    1.5212 H         1 <0>         0.1081
     60 H28        -2.5022   -5.3636    3.0311 H         1 <0>         0.0658
@<TRIPOS>BOND
     1    1    2 1
     2    1   37 1
     3    1   38 1
     4    1   39 1
     5    2    3 1
     6    2   23 1
     7    2    4 1
     8    4    5 1
     9    4   40 1
    10    4   41 1
    11    5    6 1
    12    5   22 1
    13    5    7 1
    14    7    8 1
    15    7   18 1
    16    7    9 1
    17    9   10 1
    18    9   42 1
    19    9   43 1
    20   10   11 1
    21   10   44 1
    22   10   45 1
    23   11   17 1
    24   11   12 2
    25   12   13 1
    26   12   46 1
    27   13   14 2
    28   13   15 1
    29   15   16 2
    30   15   47 1
    31   16   17 1
    32   16   48 1
    33   17   18 1
    34   17   36 1
    35   18   19 1
    36   18   35 1
    37   19   20 1
    38   19   21 1
    39   19   34 1
    40   21   22 1
    41   21   49 1
    42   21   50 1
    43   22   23 1
    44   22   33 1
    45   23   24 1
    46   23   32 1
    47   24   25 2
    48   24   26 1
    49   26   27 1
    50   26   51 1
    51   26   52 1
    52   27   28 1
    53   28   29 2
    54   28   30 1
    55   28   31 1
    56   32   53 1
    57   33   54 1
    58   33   55 1
    59   33   56 1
    60   34   57 1
    61   36   58 1
    62   36   59 1
    63   36   60 1
@<TRIPOS>MOLECULE
ZINC18037259
   42    46     0     0     0
SMALL
USER_CHARGES

@<TRIPOS>ATOM
      1 C1          0.5883    1.7458    0.6933 C.ar      1 <0>        -0.1285
      2 C2          0.5593    1.7434   -0.6838 C.ar      1 <0>        -0.1297
      3 C3          1.1649    0.7127   -1.3979 C.ar      1 <0>        -0.0921
      4 C4          1.7995   -0.3143   -0.7215 C.ar      1 <0>        -0.1150
      5 C5          1.8295   -0.3116    0.6860 C.ar      1 <0>        -0.1121
      6 C6          1.2238    0.7178    1.3849 C.ar      1 <0>        -0.0908
      7 C7          2.5704   -1.5240    1.1153 C.2       1 <0>         0.4374
      8 O1          2.7960   -1.8550    2.2709 O.3       1 <0>        -0.5396
      9 C8          2.9690   -2.2280   -0.0387 C.2       1 <0>        -0.5096
     10 C9          3.7243   -3.4801   -0.0525 C.2       1 <0>         0.2846
     11 C10         3.1006   -4.8530    0.0558 C.3       1 <0>        -0.1353
     12 H1          2.5218   -5.1363   -0.8234 H         1 <0>         0.1358
     13 C11         4.3114   -5.7884    0.3620 C.3       1 <0>        -0.1337
     14 H2          4.2434   -6.7732   -0.1002 H         1 <0>         0.1324
     15 C12         5.4903   -4.9389   -0.1538 C.3       1 <0>        -0.0150
     16 H3          5.7626   -5.2466   -1.1634 H         1 <0>         0.0918
     17 N1          5.0093   -3.5543   -0.1642 N.2       1 <0>        -0.4443
     18 C13         6.6741   -5.0771    0.7685 C.2       1 <0>         0.5214
     19 O2          7.4977   -5.9552    0.5759 O.co2     1 <0>        -0.7049
     20 O3          6.8081   -4.3109    1.7074 O.co2     1 <0>        -0.6655
     21 C14         4.3080   -5.8229    1.8764 C.2       1 <0>         0.5409
     22 O4          5.2372   -6.1581    2.5792 O.2       1 <0>        -0.4242
     23 N2          3.1033   -5.4206    2.3090 N.am      1 <0>        -0.5347
     24 C15         2.3124   -4.9339    1.3508 C.2       1 <0>         0.5623
     25 O5          1.1459   -4.6347    1.4895 O.2       1 <0>        -0.4795
     26 C16         2.7169   -5.4844    3.6560 C.ar      1 <0>         0.1527
     27 C17         2.9533   -4.4072    4.4988 C.ar      1 <0>        -0.0553
     28 C18         2.5716   -4.4719    5.8246 C.ar      1 <0>        -0.0980
     29 C19         1.9538   -5.6097    6.3137 C.ar      1 <0>        -0.0214
     30 C20         1.7167   -6.6853    5.4763 C.ar      1 <0>        -0.1062
     31 C21         2.0920   -6.6235    4.1473 C.ar      1 <0>        -0.0121
     32 Cl1         1.7881   -7.9704    3.0950 Cl        1 <0>        -0.0528
     33 Cl2         1.4760   -5.6877    7.9808 Cl        1 <0>        -0.0698
     34 C22         2.5214   -1.5284   -1.1774 C.2       1 <0>         0.4355
     35 O6          2.6972   -1.8640   -2.3403 O.2       1 <0>        -0.5512
     36 H4          0.1197    2.5513    1.2392 H         1 <0>         0.1163
     37 H5          0.0642    2.5446   -1.2123 H         1 <0>         0.1163
     38 H6          1.1390    0.7146   -2.4776 H         1 <0>         0.1201
     39 H7          1.2443    0.7241    2.4647 H         1 <0>         0.1201
     40 H8          3.4356   -3.5190    4.1182 H         1 <0>         0.1627
     41 H9          2.7558   -3.6339    6.4805 H         1 <0>         0.1451
     42 H10         1.2344   -7.5721    5.8603 H         1 <0>         0.1456
@<TRIPOS>BOND
     1    1    6 ar
     2    1    2 ar
     3    1   36 1
     4    2    3 ar
     5    2   37 1
     6    3    4 ar
     7    3   38 1
     8    4   34 1
     9    4    5 ar
    10    5    6 ar
    11    5    7 1
    12    6   39 1
    13    7    8 1
    14    7    9 2
    15    9   34 1
    16    9   10 1
    17   10   11 1
    18   10   17 2
    19   11   24 1
    20   11   13 1
    21   11   12 1
    22   13   14 1
    23   13   15 1
    24   13   21 1
    25   15   16 1
    26   15   18 1
    27   15   17 1
    28   18   19 2
    29   18   20 1
    30   21   22 2
    31   21   23 am
    32   23   24 am
    33   23   26 1
    34   24   25 2
    35   26   31 ar
    36   26   27 ar
    37   27   28 ar
    38   27   40 1
    39   28   29 ar
    40   28   41 1
    41   29   30 ar
    42   29   33 1
    43   30   31 ar
    44   30   42 1
    45   31   32 1
    46   34   35 2
@<TRIPOS>MOLECULE
ZINC02440478
   50    53     0     0     0
SMALL
USER_CHARGES
8-(3-ethoxy-4-hydroxy-phenyl)-3-(4-fluorophenyl)-10-oxo-5-thia-1,3-diazabicyclo[4.4.0]dec-6-ene-7-carbonitrile
@<TRIPOS>ATOM
      1 C1          5.4993   14.3217    3.8944 C.3       1 <0>        -0.1529
      2 C2          4.4951   13.2517    3.4612 C.3       1 <0>         0.0509
      3 O1          5.1098   11.9638    3.5351 O.3       1 <0>        -0.3044
      4 C3          4.3476   10.8947    3.1810 C.ar      1 <0>         0.1132
      5 C4          3.0385   11.0819    2.7669 C.ar      1 <0>        -0.1819
      6 C5          2.2634    9.9935    2.4124 C.ar      1 <0>        -0.0502
      7 C6          2.7945    8.7179    2.4597 C.ar      1 <0>        -0.1415
      8 C7          4.1013    8.5247    2.8673 C.ar      1 <0>        -0.0993
      9 C8          4.8820    9.6108    3.2291 C.ar      1 <0>         0.0782
     10 O2          6.1678    9.4224    3.6299 O.3       1 <0>        -0.4852
     11 C9          0.8383   10.1985    1.9673 C.3       1 <0>         0.0196
     12 H1          0.5982   11.2615    1.9891 H         1 <0>         0.1150
     13 C10        -0.1060    9.4398    2.9042 C.3       1 <0>        -0.1301
     14 C11         0.0451    7.9627    2.6626 C.2       1 <0>         0.5295
     15 O3         -0.0430    7.1925    3.5950 O.2       1 <0>        -0.4922
     16 N1          0.2783    7.4812    1.4190 N.am      1 <0>        -0.5431
     17 C12         0.4516    6.0351    1.2900 C.3       1 <0>         0.2653
     18 N2         -0.0727    5.5124    0.0328 N.pl3     1 <0>        -0.4964
     19 C13         0.6773    6.0572   -1.1117 C.3       1 <0>         0.0469
     20 S1          0.2016    7.7940   -1.3093 S.3       1 <0>        -0.0166
     21 C14         0.3903    8.3458    0.3558 C.2       1 <0>         0.1814
     22 C15         0.6654    9.6683    0.5688 C.2       1 <0>        -0.1042
     23 C16         0.7907   10.5562   -0.5477 C.1       1 <0>         0.2576
     24 N3          0.8900   11.2606   -1.4334 N.1       1 <0>        -0.3996
     25 C17        -0.0538    4.1144    0.0247 C.ar      1 <0>         0.0637
     26 C18         1.1576    3.4354    0.0095 C.ar      1 <0>        -0.1123
     27 C19         1.1739    2.0543    0.0019 C.ar      1 <0>        -0.1418
     28 C20        -0.0162    1.3468    0.0094 C.ar      1 <0>         0.1111
     29 C21        -1.2252    2.0217    0.0189 C.ar      1 <0>        -0.1455
     30 C22        -1.2463    3.4027    0.0322 C.ar      1 <0>        -0.0497
     31 F1          0.0021   -0.0041    0.0020 F         1 <0>        -0.1336
     32 H2          5.8164   14.1287    4.9193 H         1 <0>         0.0678
     33 H3          6.3664   14.2946    3.2346 H         1 <0>         0.0667
     34 H4          5.0304   15.3041    3.8381 H         1 <0>         0.0801
     35 H5          4.1780   13.4447    2.4364 H         1 <0>         0.0629
     36 H6          3.6280   13.2789    4.1211 H         1 <0>         0.0641
     37 H7          2.6225   12.0776    2.7251 H         1 <0>         0.1364
     38 H8          2.1871    7.8706    2.1779 H         1 <0>         0.1218
     39 H9          4.5138    7.5272    2.9034 H         1 <0>         0.1356
     40 H10         6.8124    9.4505    2.9096 H         1 <0>         0.3879
     41 H11        -1.1351    9.7385    2.7048 H         1 <0>         0.1217
     42 H12         0.1471    9.6677    3.9396 H         1 <0>         0.1252
     43 H13        -0.0624    5.5444    2.1164 H         1 <0>         0.1291
     44 H14         1.5145    5.8016    1.3517 H         1 <0>         0.0636
     45 H15         1.7478    5.9873   -0.9185 H         1 <0>         0.0859
     46 H16         0.4275    5.5010   -2.0152 H         1 <0>         0.1362
     47 H17         2.0862    3.9869    0.0032 H         1 <0>         0.1322
     48 H18         2.1158    1.5259   -0.0096 H         1 <0>         0.1412
     49 H19        -2.1524    1.4678    0.0202 H         1 <0>         0.1449
     50 H20        -2.1895    3.9287    0.0441 H         1 <0>         0.1448
@<TRIPOS>BOND
     1    1    2 1
     2    1   32 1
     3    1   33 1
     4    1   34 1
     5    2    3 1
     6    2   35 1
     7    2   36 1
     8    3    4 1
     9    4    9 ar
    10    4    5 ar
    11    5    6 ar
    12    5   37 1
    13    6    7 ar
    14    6   11 1
    15    7    8 ar
    16    7   38 1
    17    8    9 ar
    18    8   39 1
    19    9   10 1
    20   10   40 1
    21   11   12 1
    22   11   22 1
    23   11   13 1
    24   13   14 1
    25   13   41 1
    26   13   42 1
    27   14   15 2
    28   14   16 am
    29   16   21 1
    30   16   17 1
    31   17   18 1
    32   17   43 1
    33   17   44 1
    34   18   19 1
    35   18   25 1
    36   19   20 1
    37   19   45 1
    38   19   46 1
    39   20   21 1
    40   21   22 2
    41   22   23 1
    42   23   24 3
    43   25   30 ar
    44   25   26 ar
    45   26   27 ar
    46   26   47 1
    47   27   28 ar
    48   27   48 1
    49   28   29 ar
    50   28   31 1
    51   29   30 ar
    52   29   49 1
    53   30   50 1
@<TRIPOS>MOLECULE
ZINC12929510
   48    50     0     0     0
SMALL
USER_CHARGES
N-[5-tert-butyl-2-[(3R)-1,1-dioxothiolan-3-yl]pyrazol-3-yl]-3,4-dichloro-benzamide
@<TRIPOS>ATOM
      1 C1          1.6172   -2.4372   -1.4199 C.3       1 <0>        -0.1374
      2 C2          1.8207   -1.8419   -0.0252 C.3       1 <0>         0.0119
      3 C3          3.3075   -1.8803    0.3337 C.3       1 <0>        -0.1380
      4 C4          1.0278   -2.6574    0.9980 C.3       1 <0>        -0.1390
      5 C5          1.3377   -0.4145   -0.0129 C.2       1 <0>         0.1092
      6 C6          0.0021   -0.0041    0.0020 C.2       1 <0>        -0.2577
      7 C7         -0.0164    1.3573    0.0095 C.2       1 <0>         0.3032
      8 N1          1.2733    1.7826   -0.0005 N.pl3     1 <0>        -0.3832
      9 N2          2.0979    0.6503   -0.0145 N.2       1 <0>        -0.2735
     10 C8          1.7222    3.1771    0.0022 C.3       1 <0>         0.1644
     11 H1          0.8584    3.8419    0.0019 H         1 <0>         0.1118
     12 C9          2.5854    3.4473   -1.2413 C.3       1 <0>        -0.1364
     13 C10         3.3207    4.8008   -1.0894 C.3       1 <0>        -0.5749
     14 S1          3.4913    4.9652    0.7345 S.o2      1 <0>         2.3764
     15 O1          2.7638    6.1071    1.1657 O.2       1 <0>        -0.9272
     16 O2          4.8623    4.8362    1.0849 O.2       1 <0>        -0.9227
     17 C11         2.5919    3.4466    1.2634 C.3       1 <0>        -0.5943
     18 N3         -1.1513    2.1663    0.0195 N.am      1 <0>        -0.6464
     19 C12        -2.3775    1.6071    0.0231 C.2       1 <0>         0.5720
     20 O3         -2.4938    0.3969    0.0176 O.2       1 <0>        -0.4866
     21 C13        -3.5806    2.4647    0.0337 C.ar      1 <0>        -0.1205
     22 C14        -3.4501    3.8551    0.0460 C.ar      1 <0>        -0.0713
     23 C15        -4.5761    4.6508    0.0510 C.ar      1 <0>        -0.1014
     24 C16        -5.8354    4.0742    0.0546 C.ar      1 <0>        -0.0039
     25 C17        -5.9720    2.6949    0.0479 C.ar      1 <0>        -0.0391
     26 C18        -4.8520    1.8883    0.0374 C.ar      1 <0>        -0.0328
     27 Cl1        -7.5543    1.9808    0.0519 Cl        1 <0>        -0.0293
     28 Cl2        -7.2483    5.0829    0.0683 Cl        1 <0>        -0.0301
     29 H2          2.1821   -1.8562   -2.1489 H         1 <0>         0.0561
     30 H3          1.9666   -3.4696   -1.4288 H         1 <0>         0.0653
     31 H4          0.5580   -2.4098   -1.6756 H         1 <0>         0.0608
     32 H5          3.4524   -1.4562    1.3273 H         1 <0>         0.0568
     33 H6          3.6569   -2.9128    0.3249 H         1 <0>         0.0602
     34 H7          3.8724   -1.2993   -0.3952 H         1 <0>         0.0612
     35 H8         -0.0315   -2.6301    0.7423 H         1 <0>         0.0628
     36 H9          1.3771   -3.6899    0.9892 H         1 <0>         0.0646
     37 H10         1.1727   -2.2334    1.9916 H         1 <0>         0.0567
     38 H11        -0.8621   -0.6518    0.0065 H         1 <0>         0.1761
     39 H12         3.3180    2.6482   -1.3539 H         1 <0>         0.1076
     40 H13         1.9475    3.4792   -2.1246 H         1 <0>         0.1026
     41 H14         2.7205    5.6145   -1.4963 H         1 <0>         0.1447
     42 H15         4.2996    4.7679   -1.5677 H         1 <0>         0.1509
     43 H16         1.9698    3.6410    2.1370 H         1 <0>         0.1474
     44 H17         3.2820    2.6236    1.4494 H         1 <0>         0.1573
     45 H18        -1.0585    3.1319    0.0240 H         1 <0>         0.4091
     46 H19        -2.4689    4.3063    0.0476 H         1 <0>         0.1405
     47 H20        -4.4759    5.7262    0.0563 H         1 <0>         0.1551
     48 H21        -4.9591    0.8136    0.0318 H         1 <0>         0.1611
@<TRIPOS>BOND
     1    1    2 1
     2    1   29 1
     3    1   30 1
     4    1   31 1
     5    2    3 1
     6    2    4 1
     7    2    5 1
     8    3   32 1
     9    3   33 1
    10    3   34 1
    11    4   35 1
    12    4   36 1
    13    4   37 1
    14    5    9 2
    15    5    6 1
    16    6    7 2
    17    6   38 1
    18    7    8 1
    19    7   18 1
    20    8    9 1
    21    8   10 1
    22   10   11 1
    23   10   17 1
    24   10   12 1
    25   12   13 1
    26   12   39 1
    27   12   40 1
    28   13   14 1
    29   13   41 1
    30   13   42 1
    31   14   15 2
    32   14   16 2
    33   14   17 1
    34   17   43 1
    35   17   44 1
    36   18   19 am
    37   18   45 1
    38   19   20 2
    39   19   21 1
    40   21   26 ar
    41   21   22 ar
    42   22   23 ar
    43   22   46 1
    44   23   24 ar
    45   23   47 1
    46   24   25 ar
    47   24   28 1
    48   25   26 ar
    49   25   27 1
    50   26   48 1
@<TRIPOS>MOLECULE
ZINC20706070
   58    62     0     0     0
SMALL
USER_CHARGES
[(3aR,4R,9bR)-4-(2-chloro-5-nitro-phenyl)-3a,4,5,9b-tetrahydro-3H-cyclopenta[c]quinolin-6-yl]-(azepan-1-yl)methanone
@<TRIPOS>ATOM
      1 C1          2.4432    9.7097    0.6865 C.ar      1 <0>        -0.1755
      2 C2          1.2119    9.2387    1.1122 C.ar      1 <0>        -0.0490
      3 C3          0.7372    8.0174    0.6873 C.ar      1 <0>        -0.1518
      4 C4          1.4975    7.2200   -0.1735 C.ar      1 <0>         0.2726
      5 C5          2.7467    7.7103   -0.6070 C.ar      1 <0>        -0.2095
      6 C6          3.2074    8.9517   -0.1728 C.ar      1 <0>        -0.0494
      7 C7          3.5714    6.9034   -1.5249 C.2       1 <0>         0.5656
      8 O1          3.9552    5.8002   -1.1869 O.2       1 <0>        -0.5420
      9 N1          3.8998    7.3886   -2.7387 N.am      1 <0>        -0.5946
     10 C8          3.5099    8.7400   -3.0735 C.3       1 <0>         0.0983
     11 C9          2.1054    8.7385   -3.7128 C.3       1 <0>        -0.1320
     12 C10         2.1604    8.1591   -5.0637 C.3       1 <0>        -0.1197
     13 C11         2.5969    6.6978   -5.1036 C.3       1 <0>        -0.1182
     14 C12         4.1040    6.6262   -5.1133 C.3       1 <0>        -0.1339
     15 C13         4.6375    6.5164   -3.6734 C.3       1 <0>         0.1091
     16 N2          1.1054    5.9731   -0.6297 N.pl3     1 <0>        -0.7323
     17 C14        -0.2381    5.5147   -0.2420 C.3       1 <0>         0.1900
     18 H1         -0.9852    5.9484   -0.9229 H         1 <0>         0.0919
     19 C15        -0.4622    5.9536    1.1903 C.3       1 <0>        -0.0996
     20 H2          0.3284    5.4333    1.7509 H         1 <0>         0.1088
     21 C16        -0.5852    7.5072    1.1099 C.3       1 <0>        -0.0145
     22 H3         -1.2147    8.0389    0.3812 H         1 <0>         0.1027
     23 C17        -1.1961    7.8458    2.4181 C.2       1 <0>        -0.1612
     24 C18        -1.9355    6.8166    2.8175 C.2       1 <0>        -0.1667
     25 C19        -1.8385    5.6782    1.7987 C.3       1 <0>        -0.0888
     26 C20        -0.3158    4.0127   -0.3372 C.ar      1 <0>        -0.0922
     27 C21        -0.2529    3.2432    0.8095 C.ar      1 <0>        -0.0285
     28 C22        -0.3250    1.8657    0.7224 C.ar      1 <0>        -0.0397
     29 C23        -0.4593    1.2564   -0.5115 C.ar      1 <0>        -0.0358
     30 C24        -0.5162    2.0244   -1.6590 C.ar      1 <0>        -0.1069
     31 C25        -0.4506    3.4038   -1.5719 C.ar      1 <0>         0.0173
     32 Cl1        -0.5298    4.3696   -3.0123 Cl        1 <0>        -0.0270
     33 N3         -0.2580    1.0423    1.9505 N.pl3     1 <0>         0.0258
     34 O2         -0.3212   -0.1716    1.8740 O.2       1 <0>        -0.1489
     35 O3         -0.1398    1.5787    3.0376 O.3       1 <0>        -0.1493
     36 H4          2.8029   10.6692    1.0275 H         1 <0>         0.1255
     37 H5          0.6166    9.8367    1.7863 H         1 <0>         0.1245
     38 H6          4.1648    9.3199   -0.5106 H         1 <0>         0.1237
     39 H7          3.4922    9.3533   -2.1605 H         1 <0>         0.0924
     40 H8          4.2324    9.1642   -3.7863 H         1 <0>         0.0783
     41 H9          1.4211    8.1405   -3.0930 H         1 <0>         0.0654
     42 H10         1.7319    9.7710   -3.7797 H         1 <0>         0.0749
     43 H11         1.1631    8.2094   -5.5251 H         1 <0>         0.0574
     44 H12         2.8770    8.7255   -5.6767 H         1 <0>         0.0613
     45 H13         2.2096    6.1751   -4.2166 H         1 <0>         0.0614
     46 H14         2.2003    6.2213   -6.0122 H         1 <0>         0.0619
     47 H15         4.4254    5.7436   -5.6857 H         1 <0>         0.0767
     48 H16         4.5113    7.5347   -5.5809 H         1 <0>         0.0681
     49 H17         5.7000    6.8012   -3.6796 H         1 <0>         0.0653
     50 H18         4.5405    5.4690   -3.3516 H         1 <0>         0.0891
     51 H19         1.7461    5.3329   -1.2539 H         1 <0>         0.4359
     52 H20        -1.1264    8.7483    3.0431 H         1 <0>         0.1359
     53 H21        -2.4979    6.8767    3.7610 H         1 <0>         0.1343
     54 H22        -2.6041    5.7262    1.0103 H         1 <0>         0.0834
     55 H23        -1.8442    4.6772    2.2548 H         1 <0>         0.0733
     56 H24        -0.1476    3.7185    1.7735 H         1 <0>         0.1681
     57 H25        -0.5153    0.1800   -0.5789 H         1 <0>         0.1665
     58 H26        -0.6162    1.5482   -2.6232 H         1 <0>         0.1620
@<TRIPOS>BOND
     1    1    6 ar
     2    1    2 ar
     3    1   36 1
     4    2    3 ar
     5    2   37 1
     6    3   21 1
     7    3    4 ar
     8    4    5 ar
     9    4   16 1
    10    5    6 ar
    11    5    7 1
    12    6   38 1
    13    7    8 2
    14    7    9 am
    15    9   15 1
    16    9   10 1
    17   10   11 1
    18   10   39 1
    19   10   40 1
    20   11   12 1
    21   11   41 1
    22   11   42 1
    23   12   13 1
    24   12   43 1
    25   12   44 1
    26   13   14 1
    27   13   45 1
    28   13   46 1
    29   14   15 1
    30   14   47 1
    31   14   48 1
    32   15   49 1
    33   15   50 1
    34   16   17 1
    35   16   51 1
    36   17   18 1
    37   17   19 1
    38   17   26 1
    39   19   20 1
    40   19   25 1
    41   19   21 1
    42   21   22 1
    43   21   23 1
    44   23   24 2
    45   23   52 1
    46   24   25 1
    47   24   53 1
    48   25   54 1
    49   25   55 1
    50   26   31 ar
    51   26   27 ar
    52   27   28 ar
    53   27   56 1
    54   28   29 ar
    55   28   33 1
    56   29   30 ar
    57   29   57 1
    58   30   31 ar
    59   30   58 1
    60   31   32 1
    61   33   34 2
    62   33   35 1
@<TRIPOS>MOLECULE
ZINC39459425
   51    54     0     0     0
SMALL
USER_CHARGES

@<TRIPOS>ATOM
      1 C1         -1.6845    0.6910    1.5472 C.3       1 <0>        -0.0903
      2 C2         -1.3789   -0.7715    1.3509 C.2       1 <0>         0.0699
      3 C3         -1.4725   -1.4555    0.1713 C.2       1 <0>        -0.0951
      4 C4         -1.1012   -2.7858    0.4278 C.2       1 <0>        -0.0898
      5 C5         -0.7792   -2.8647    1.7571 C.2       1 <0>         0.0403
      6 N1         -0.9573   -1.6328    2.3173 N.pl3     1 <0>        -0.3204
      7 Cl1        -0.6973   -1.2376    3.9606 Cl        1 <0>         0.1141
      8 C6         -0.3013   -4.1114    2.3824 C.ar      1 <0>         0.2178
      9 C7          0.6812   -4.8460    1.6725 C.ar      1 <0>        -0.0921
     10 C8          1.1329   -6.0561    2.2015 C.ar      1 <0>        -0.5774
     11 C9          0.6098   -6.4678    3.4164 C.ar      1 <0>        -0.0722
     12 C10        -0.3304   -5.6821    4.0636 C.ar      1 <0>         0.1091
     13 N2         -0.7567   -4.5463    3.5440 N.ar      1 <0>        -0.4276
     14 S1          2.3301   -7.0294    1.3507 S.o2      1 <0>         2.4765
     15 O1          2.4571   -8.2108    2.1301 O.2       1 <0>        -0.9206
     16 O2          1.8606   -7.0923    0.0110 O.2       1 <0>        -0.9237
     17 C11         3.8614   -6.0603    1.4313 C.3       1 <0>        -0.5683
     18 C12         4.1684   -5.7118    2.8891 C.3       1 <0>        -0.1412
     19 C13         5.0148   -6.8797    0.8490 C.3       1 <0>        -0.1441
     20 C14         1.2032   -4.2948    0.4240 C.2       1 <0>         0.4009
     21 O3          2.3115   -3.8015    0.4093 O.2       1 <0>        -0.4313
     22 C15         0.3898   -4.3274   -0.8500 C.3       1 <0>        -0.1555
     23 C16        -1.0622   -3.9446   -0.5288 C.3       1 <0>        -0.0509
     24 C17        -1.8898   -0.8962   -1.1387 C.ar      1 <0>        -0.0388
     25 C18        -0.9394   -0.3660   -2.0074 C.ar      1 <0>        -0.0864
     26 C19        -1.3323    0.1527   -3.2250 C.ar      1 <0>        -0.1275
     27 C20        -2.6680    0.1482   -3.5855 C.ar      1 <0>        -0.0997
     28 C21        -3.6193   -0.3757   -2.7304 C.ar      1 <0>        -0.1461
     29 C22        -3.2376   -0.9046   -1.5081 C.ar      1 <0>         0.1217
     30 O4         -4.1713   -1.4250   -0.6690 O.3       1 <0>        -0.4901
     31 H1         -0.7813    1.2770    1.3769 H         1 <0>         0.0829
     32 H2         -2.4559    0.9990    0.8413 H         1 <0>         0.0886
     33 H3         -2.0374    0.8550    2.5654 H         1 <0>         0.0725
     34 H4          0.9336   -7.3988    3.8578 H         1 <0>         0.1690
     35 H5         -0.7235   -6.0068    5.0156 H         1 <0>         0.1788
     36 H6          3.7411   -5.1423    0.8559 H         1 <0>         0.1571
     37 H7          3.3763   -5.0765    3.2854 H         1 <0>         0.0661
     38 H8          4.2277   -6.6279    3.4769 H         1 <0>         0.0775
     39 H9          5.1199   -5.1829    2.9437 H         1 <0>         0.0866
     40 H10         4.7961   -7.1279   -0.1896 H         1 <0>         0.0742
     41 H11         5.9350   -6.2973    0.8974 H         1 <0>         0.0911
     42 H12         5.1351   -7.7976    1.4243 H         1 <0>         0.0772
     43 H13         0.8043   -3.6170   -1.5653 H         1 <0>         0.1086
     44 H14         0.4168   -5.3311   -1.2740 H         1 <0>         0.1295
     45 H15        -1.5694   -4.7990   -0.0807 H         1 <0>         0.0819
     46 H16        -1.5743   -3.6682   -1.4505 H         1 <0>         0.0980
     47 H17         0.1040   -0.3603   -1.7288 H         1 <0>         0.1274
     48 H18        -0.5945    0.5637   -3.8981 H         1 <0>         0.1272
     49 H19        -2.9688    0.5562   -4.5392 H         1 <0>         0.1270
     50 H20        -4.6606   -0.3763   -3.0169 H         1 <0>         0.1298
     51 H21        -4.5487   -0.7820   -0.0531 H         1 <0>         0.3879
@<TRIPOS>BOND
     1    1    2 1
     2    1   31 1
     3    1   32 1
     4    1   33 1
     5    2    6 1
     6    2    3 2
     7    3    4 1
     8    3   24 1
     9    4   23 1
    10    4    5 2
    11    5    6 1
    12    5    8 1
    13    6    7 1
    14    8   13 ar
    15    8    9 ar
    16    9   10 ar
    17    9   20 1
    18   10   11 ar
    19   10   14 1
    20   11   12 ar
    21   11   34 1
    22   12   13 ar
    23   12   35 1
    24   14   15 2
    25   14   16 2
    26   14   17 1
    27   17   18 1
    28   17   19 1
    29   17   36 1
    30   18   37 1
    31   18   38 1
    32   18   39 1
    33   19   40 1
    34   19   41 1
    35   19   42 1
    36   20   21 2
    37   20   22 1
    38   22   23 1
    39   22   43 1
    40   22   44 1
    41   23   45 1
    42   23   46 1
    43   24   29 ar
    44   24   25 ar
    45   25   26 ar
    46   25   47 1
    47   26   27 ar
    48   26   48 1
    49   27   28 ar
    50   27   49 1
    51   28   29 ar
    52   28   50 1
    53   29   30 1
    54   30   51 1
@<TRIPOS>MOLECULE
ZINC60130094
   62    65     0     0     0
SMALL
USER_CHARGES

@<TRIPOS>ATOM
      1 C1          0.7602    1.2920    0.2196 C.3       1 <0>        -0.1175
      2 C2          0.2653   -0.1270    0.1070 C.ar      1 <0>        -0.1209
      3 C3          0.3753   -0.8007   -1.0887 C.ar      1 <0>        -0.0418
      4 C4         -0.0838   -2.1164   -1.1922 C.ar      1 <0>        -0.1477
      5 C5         -0.6535   -2.7442   -0.0809 C.ar      1 <0>        -0.0837
      6 C6         -0.7605   -2.0651    1.1115 C.ar      1 <0>        -0.1366
      7 C7         -0.2970   -0.7567    1.2129 C.ar      1 <0>         0.1695
      8 N1         -0.4017   -0.0739    2.4231 N.am      1 <0>        -0.6632
      9 C8         -1.3702   -0.4026    3.3008 C.2       1 <0>         0.5639
     10 O1         -2.1036   -1.3449    3.0720 O.2       1 <0>        -0.5076
     11 C9         -1.5405    0.3813    4.5400 C.ar      1 <0>        -0.1466
     12 C10        -0.7021    1.4681    4.8020 C.ar      1 <0>        -0.0625
     13 C11        -0.8638    2.1971    5.9591 C.ar      1 <0>        -0.1193
     14 C12        -1.8597    1.8526    6.8665 C.ar      1 <0>         0.1928
     15 C13        -2.6959    0.7717    6.6091 C.ar      1 <0>        -0.1428
     16 C14        -2.5440    0.0419    5.4511 C.ar      1 <0>        -0.0293
     17 N2         -2.0203    2.5946    8.0407 N.pl3     1 <0>        -0.3362
     18 C15        -3.1978    2.8656    8.6615 C.2       1 <0>         0.0890
     19 C16        -2.9209    3.6065    9.7590 C.2       1 <0>        -0.2569
     20 C17        -1.5353    3.7959    9.8139 C.2       1 <0>         0.0884
     21 N3         -0.9951    3.1861    8.7902 N.2       1 <0>        -0.2876
     22 C18        -0.7918    4.5658   10.8748 C.3       1 <0>        -0.0761
     23 C19        -4.5650    2.4213    8.2095 C.3       1 <0>        -0.1009
     24 C20         0.0320   -2.8415   -2.4725 C.2       1 <0>         0.5630
     25 O2         -0.0778   -2.2404   -3.5237 O.2       1 <0>        -0.5272
     26 N4          0.2596   -4.1699   -2.4764 N.am      1 <0>        -0.6032
     27 C21         0.5216   -4.8882   -1.2218 C.3       1 <0>         0.0765
     28 C22        -0.4564   -6.0622   -1.1123 C.3       1 <0>        -0.1387
     29 C23        -0.3479   -6.9303   -2.3680 C.3       1 <0>        -0.1206
     30 C24        -0.7247   -6.1008   -3.5977 C.3       1 <0>        -0.1333
     31 C25         0.2443   -4.9283   -3.7347 C.3       1 <0>         0.1442
     32 H1          1.2444   -5.3073   -3.9451 H         1 <0>         0.0719
     33 C26        -0.2132   -4.0184   -4.8765 C.3       1 <0>        -0.1398
     34 H2          1.8074    1.2887    0.5219 H         1 <0>         0.0749
     35 H3          0.6622    1.7887   -0.7457 H         1 <0>         0.0774
     36 H4          0.1688    1.8250    0.9641 H         1 <0>         0.0640
     37 H5          0.8156   -0.3127   -1.9456 H         1 <0>         0.1369
     38 H6         -1.0096   -3.7609   -0.1578 H         1 <0>         0.1430
     39 H7         -1.2008   -2.5495    1.9705 H         1 <0>         0.1596
     40 H8          0.2225    0.6381    2.6339 H         1 <0>         0.4127
     41 H9          0.0720    1.7358    4.0980 H         1 <0>         0.1352
     42 H10        -0.2162    3.0372    6.1622 H         1 <0>         0.1426
     43 H11        -3.4680    0.5068    7.3163 H         1 <0>         0.1426
     44 H12        -3.1966   -0.7947    5.2498 H         1 <0>         0.1501
     45 H13        -3.6422    3.9853   10.4681 H         1 <0>         0.1556
     46 H14        -0.5172    3.8927   11.6870 H         1 <0>         0.0812
     47 H15         0.1095    5.0011   10.4432 H         1 <0>         0.0755
     48 H16        -1.4298    5.3604   11.2614 H         1 <0>         0.0820
     49 H17        -4.7993    1.4552    8.6563 H         1 <0>         0.0861
     50 H18        -5.3074    3.1557    8.5218 H         1 <0>         0.0911
     51 H19        -4.5772    2.3318    7.1232 H         1 <0>         0.0767
     52 H20         1.5448   -5.2639   -1.2227 H         1 <0>         0.0700
     53 H21         0.3786   -4.2135   -0.3777 H         1 <0>         0.1110
     54 H22        -0.2106   -6.6598   -0.2345 H         1 <0>         0.0786
     55 H23        -1.4735   -5.6811   -1.0203 H         1 <0>         0.0684
     56 H24         0.6754   -7.2909   -2.4728 H         1 <0>         0.0652
     57 H25        -1.0251   -7.7800   -2.2817 H         1 <0>         0.0677
     58 H26        -0.6697   -6.7259   -4.4889 H         1 <0>         0.0768
     59 H27        -1.7392   -5.7193   -3.4823 H         1 <0>         0.0675
     60 H28         0.5427   -3.2541   -5.0571 H         1 <0>         0.0769
     61 H29        -0.3532   -4.6116   -5.7801 H         1 <0>         0.0460
     62 H30        -1.1550   -3.5411   -4.6057 H         1 <0>         0.0657
@<TRIPOS>BOND
     1    1    2 1
     2    1   34 1
     3    1   35 1
     4    1   36 1
     5    2    7 ar
     6    2    3 ar
     7    3    4 ar
     8    3   37 1
     9    4    5 ar
    10    4   24 1
    11    5    6 ar
    12    5   38 1
    13    6    7 ar
    14    6   39 1
    15    7    8 1
    16    8    9 am
    17    8   40 1
    18    9   10 2
    19    9   11 1
    20   11   16 ar
    21   11   12 ar
    22   12   13 ar
    23   12   41 1
    24   13   14 ar
    25   13   42 1
    26   14   15 ar
    27   14   17 1
    28   15   16 ar
    29   15   43 1
    30   16   44 1
    31   17   21 1
    32   17   18 1
    33   18   19 2
    34   18   23 1
    35   19   20 1
    36   19   45 1
    37   20   21 2
    38   20   22 1
    39   22   46 1
    40   22   47 1
    41   22   48 1
    42   23   49 1
    43   23   50 1
    44   23   51 1
    45   24   25 2
    46   24   26 am
    47   26   31 1
    48   26   27 1
    49   27   28 1
    50   27   52 1
    51   27   53 1
    52   28   29 1
    53   28   54 1
    54   28   55 1
    55   29   30 1
    56   29   56 1
    57   29   57 1
    58   30   31 1
    59   30   58 1
    60   30   59 1
    61   31   32 1
    62   31   33 1
    63   33   60 1
    64   33   61 1
    65   33   62 1
@<TRIPOS>MOLECULE
ZINC01755561
   72    76     0     0     0
SMALL
USER_CHARGES
3-[2-(9-fluoro-11,17-dihydroxy-10,13,16-trimethyl-3-oxo-6,7,8,11,12,14,15,16-octahydrocyclopenta[a]phenanthren-17-yl)-2-oxo-ethoxy]carbonylbenzenesulfonic acid
@<TRIPOS>ATOM
      1 C1         -1.3898   -1.9415    3.7146 C.3       1 <0>        -0.1428
      2 C2         -0.7277   -1.4474    2.4268 C.3       1 <0>        -0.1190
      3 H1          0.2698   -1.0645    2.6427 H         1 <0>         0.0942
      4 C3         -1.5898   -0.3434    1.7761 C.3       1 <0>        -0.1120
      5 C4         -1.4335   -0.6004    0.2479 C.3       1 <0>        -0.0757
      6 H2         -2.2285   -0.1474   -0.3444 H         1 <0>         0.1025
      7 C5         -0.0500   -0.0750   -0.1431 C.3       1 <0>        -0.1281
      8 H3          0.6796   -0.3807    0.6067 H         1 <0>         0.1236
      9 C6         -0.0945    1.4574   -0.2182 C.3       1 <0>        -0.1150
     10 C7          1.3481    1.9625   -0.2694 C.3       1 <0>        -0.0868
     11 C8          2.1255    1.2272   -1.3226 C.2       1 <0>        -0.0412
     12 C9          3.3303    1.7198   -1.6882 C.2       1 <0>        -0.2309
     13 C10         4.0767    0.8810   -2.6652 C.2       1 <0>         0.4168
     14 O1          4.7044    1.3570   -3.5926 O.2       1 <0>        -0.4518
     15 C11         3.9968   -0.5857   -2.4201 C.2       1 <0>        -0.2338
     16 C12         2.7765   -1.0402   -2.0620 C.2       1 <0>        -0.0611
     17 C13         1.6677   -0.0270   -1.9844 C.3       1 <0>        -0.0293
     18 C14         0.3678   -0.6116   -1.5056 C.3       1 <0>         0.1726
     19 C15         0.4611   -2.1399   -1.4255 C.3       1 <0>         0.0388
     20 H4          1.1538   -2.4259   -0.6339 H         1 <0>         0.1009
     21 C16        -0.9309   -2.6905   -1.1154 C.3       1 <0>        -0.1587
     22 C17        -1.4628   -2.1389    0.1875 C.3       1 <0>        -0.0323
     23 C18        -0.6429   -2.5961    1.4011 C.3       1 <0>         0.1060
     24 C19         0.7910   -2.8299    1.0007 C.2       1 <0>         0.3394
     25 O2          1.6033   -1.9443    1.1197 O.2       1 <0>        -0.4058
     26 C20         1.2112   -4.1690    0.4517 C.3       1 <0>         0.0162
     27 O3          2.6298   -4.1421    0.1433 O.3       1 <0>        -0.3406
     28 C21         3.1677   -5.2698   -0.3603 C.2       1 <0>         0.5142
     29 O4          2.4708   -6.2489   -0.5369 O.2       1 <0>        -0.4964
     30 C22         4.6052   -5.3159   -0.6977 C.ar      1 <0>        -0.1628
     31 C23         5.4082   -4.1903   -0.5012 C.ar      1 <0>        -0.0368
     32 C24         6.7506   -4.2419   -0.8134 C.ar      1 <0>        -0.1601
     33 C25         7.2999   -5.4021   -1.3305 C.ar      1 <0>         0.0108
     34 C26         6.5091   -6.5191   -1.5326 C.ar      1 <0>        -0.6726
     35 C27         5.1659   -6.4830   -1.2197 C.ar      1 <0>         0.0390
     36 S1          7.2189   -7.9910   -2.1915 S.o2      1 <0>         2.6943
     37 O5          8.6069   -7.9424   -1.8910 O.2       1 <0>        -1.0515
     38 O6          6.3865   -9.0649   -1.7754 O.2       1 <0>        -1.0502
     39 O7         -1.2022   -3.7902    1.9517 O.3       1 <0>        -0.5293
     40 C28        -2.9038   -2.6161    0.3795 C.3       1 <0>        -0.1292
     41 O8          0.9173   -2.6606   -2.6756 O.3       1 <0>        -0.5429
     42 F1         -0.6236   -0.2775   -2.4345 F         1 <0>        -0.1939
     43 C29         1.4075    0.3708   -3.4387 C.3       1 <0>        -0.1445
     44 H5         -0.8008   -2.7557    4.1367 H         1 <0>         0.0539
     45 H6         -1.4448   -1.1228    4.4321 H         1 <0>         0.0621
     46 H7         -2.3956   -2.2980    3.4923 H         1 <0>         0.0691
     47 H8         -1.2096    0.6438    2.0390 H         1 <0>         0.0783
     48 H9         -2.6326   -0.4453    2.0766 H         1 <0>         0.0782
     49 H10        -0.6268    1.7680   -1.1172 H         1 <0>         0.0744
     50 H11        -0.5945    1.8562    0.6645 H         1 <0>         0.0816
     51 H12         1.3489    3.0297   -0.4913 H         1 <0>         0.0852
     52 H13         1.8224    1.7978    0.6981 H         1 <0>         0.0895
     53 H14         3.7250    2.6450   -1.2947 H         1 <0>         0.1506
     54 H15         4.8516   -1.2379   -2.5215 H         1 <0>         0.1518
     55 H16         2.6046   -2.0835   -1.8419 H         1 <0>         0.1514
     56 H17        -0.8778   -3.7771   -1.0477 H         1 <0>         0.0817
     57 H18        -1.6105   -2.4172   -1.9226 H         1 <0>         0.0979
     58 H19         1.0314   -4.8795    1.1321 H         1 <0>         0.0974
     59 H20         0.6462   -4.3833   -0.4555 H         1 <0>         0.1075
     60 H21         4.9797   -3.2828   -0.1022 H         1 <0>         0.1360
     61 H22         7.3736   -3.3734   -0.6581 H         1 <0>         0.1333
     62 H23         8.3507   -5.4355   -1.5778 H         1 <0>         0.1435
     63 H24         4.5497   -7.3557   -1.3779 H         1 <0>         0.1497
     64 H25        -0.7264   -4.1283    2.7226 H         1 <0>         0.3812
     65 H26        -3.5311   -2.2048   -0.4112 H         1 <0>         0.0578
     66 H27        -2.9344   -3.7049    0.3382 H         1 <0>         0.0696
     67 H28        -3.2723   -2.2787    1.3482 H         1 <0>         0.0651
     68 H29         0.9822   -3.6251   -2.6998 H         1 <0>         0.3814
     69 H30         0.5988    1.1007   -3.4766 H         1 <0>         0.0705
     70 H31         2.3114    0.8077   -3.8631 H         1 <0>         0.0564
     71 H32         1.1269   -0.5125   -4.0124 H         1 <0>         0.0806
     72 O9          7.0988   -7.9094   -3.7066 O.3       1 <0>        -1.0699
@<TRIPOS>BOND
     1    1    2 1
     2    1   44 1
     3    1   45 1
     4    1   46 1
     5    2    3 1
     6    2   23 1
     7    2    4 1
     8    4    5 1
     9    4   47 1
    10    4   48 1
    11    5    6 1
    12    5   22 1
    13    5    7 1
    14    7    8 1
    15    7   18 1
    16    7    9 1
    17    9   10 1
    18    9   49 1
    19    9   50 1
    20   10   11 1
    21   10   51 1
    22   10   52 1
    23   11   17 1
    24   11   12 2
    25   12   13 1
    26   12   53 1
    27   13   14 2
    28   13   15 1
    29   15   16 2
    30   15   54 1
    31   16   17 1
    32   16   55 1
    33   17   18 1
    34   17   43 1
    35   18   19 1
    36   18   42 1
    37   19   20 1
    38   19   21 1
    39   19   41 1
    40   21   22 1
    41   21   56 1
    42   21   57 1
    43   22   23 1
    44   22   40 1
    45   23   24 1
    46   23   39 1
    47   24   25 2
    48   24   26 1
    49   26   27 1
    50   26   58 1
    51   26   59 1
    52   27   28 1
    53   28   29 2
    54   28   30 1
    55   30   35 ar
    56   30   31 ar
    57   31   32 ar
    58   31   60 1
    59   32   33 ar
    60   32   61 1
    61   33   34 ar
    62   33   62 1
    63   34   35 ar
    64   34   36 1
    65   35   63 1
    66   36   37 2
    67   36   38 2
    68   36   72 1
    69   39   64 1
    70   40   65 1
    71   40   66 1
    72   40   67 1
    73   41   68 1
    74   43   69 1
    75   43   70 1
    76   43   71 1
@<TRIPOS>MOLECULE
ZINC24081263
   71    74     0     0     0
SMALL
USER_CHARGES
(5R)-4-(4-allyloxy-2-methyl-benzoyl)-5-(3,4-dimethoxyphenyl)-3-hydroxy-1-(2-morpholinoethyl)-5H-pyrrol-2-one
@<TRIPOS>ATOM
      1 C1         -0.1514   -5.3820    3.0678 C.3       1 <0>        -0.1156
      2 C2          0.3565   -4.4332    4.1226 C.ar      1 <0>        -0.0004
      3 C3          0.7046   -4.9081    5.3671 C.ar      1 <0>        -0.1520
      4 C4          1.1688   -4.0329    6.3425 C.ar      1 <0>         0.1243
      5 C5          1.2877   -2.6754    6.0645 C.ar      1 <0>        -0.2155
      6 C6          0.9469   -2.1932    4.8213 C.ar      1 <0>        -0.0493
      7 C7          0.4801   -3.0702    3.8371 C.ar      1 <0>        -0.1156
      8 C8          0.1130   -2.5573    2.5026 C.2       1 <0>         0.4817
      9 O1         -0.9279   -1.9450    2.3512 O.2       1 <0>        -0.5207
     10 C9          1.0023   -2.7855    1.3593 C.2       1 <0>        -0.4780
     11 C10         2.2332   -3.3502    1.3916 C.2       1 <0>         0.2793
     12 C11         2.7851   -3.3915    0.0212 C.2       1 <0>         0.5051
     13 O2          3.8732   -3.8411   -0.2791 O.2       1 <0>        -0.5335
     14 N1          1.9046   -2.8577   -0.8448 N.am      1 <0>        -0.6078
     15 C12         0.7226   -2.4360   -0.0838 C.3       1 <0>         0.2629
     16 H1         -0.1732   -2.9456   -0.4683 H         1 <0>         0.0702
     17 C13         0.5175   -0.9499   -0.2266 C.ar      1 <0>        -0.0574
     18 C14         1.5792   -0.0854   -0.0344 C.ar      1 <0>        -0.0938
     19 C15         1.3962    1.2786   -0.1647 C.ar      1 <0>        -0.1768
     20 C16         0.1464    1.7822   -0.4877 C.ar      1 <0>         0.0873
     21 C17        -0.9221    0.9121   -0.6816 C.ar      1 <0>         0.0963
     22 C18        -0.7318   -0.4540   -0.5499 C.ar      1 <0>        -0.1442
     23 O3         -2.1491    1.4012   -1.0051 O.3       1 <0>        -0.3109
     24 C19        -3.1865    0.4469   -1.2403 C.3       1 <0>         0.0241
     25 O4         -0.0353    3.1239   -0.6162 O.3       1 <0>        -0.3104
     26 C20         1.1063    3.9565   -0.4028 C.3       1 <0>         0.0261
     27 C21         2.0927   -2.7208   -2.2912 C.3       1 <0>         0.1409
     28 C22         2.7508   -1.3732   -2.5946 C.3       1 <0>         0.0327
     29 N2          2.9394   -1.2360   -4.0450 N.3       1 <0>        -0.5313
     30 C23         3.9160   -2.2149   -4.5442 C.3       1 <0>         0.0103
     31 C24         4.0372   -2.0770   -6.0642 C.3       1 <0>         0.0639
     32 O5          4.4037   -0.7331   -6.3882 O.3       1 <0>        -0.3877
     33 C25         3.4741    0.2465   -5.9175 C.3       1 <0>         0.0641
     34 C26         3.3471    0.1322   -4.3960 C.3       1 <0>         0.0184
     35 O6          2.8578   -3.8050    2.5023 O.3       1 <0>        -0.6094
     36 O7          1.5062   -4.5043    7.5694 O.3       1 <0>        -0.3148
     37 C27         1.8647   -3.5384    8.5595 C.3       1 <0>         0.0849
     38 C28         2.2040   -4.2421    9.8482 C.2       1 <0>        -0.1532
     39 C29         3.2682   -3.8902   10.5262 C.2       1 <0>        -0.1814
     40 H2         -0.1787   -6.4032    3.4757 H         1 <0>         0.0598
     41 H3          0.5184   -5.3533    2.1957 H         1 <0>         0.0834
     42 H4         -1.1646   -5.0821    2.7621 H         1 <0>         0.0661
     43 H5          0.6130   -5.9615    5.5873 H         1 <0>         0.1241
     44 H6          1.6484   -1.9988    6.8251 H         1 <0>         0.1198
     45 H7          1.0403   -1.1390    4.6060 H         1 <0>         0.1171
     46 H8          2.5537   -0.4767    0.2178 H         1 <0>         0.1174
     47 H9          2.2272    1.9517   -0.0140 H         1 <0>         0.1274
     48 H10        -1.5593   -1.1315   -0.7003 H         1 <0>         0.1324
     49 H11        -4.1193    0.9735   -1.4906 H         1 <0>         0.0955
     50 H12        -3.3391   -0.1593   -0.3352 H         1 <0>         0.0587
     51 H13        -2.8996   -0.2080   -2.0762 H         1 <0>         0.0525
     52 H14         0.8216    5.0105   -0.5369 H         1 <0>         0.0960
     53 H15         1.8920    3.6940   -1.1265 H         1 <0>         0.0511
     54 H16         1.4840    3.8059    0.6193 H         1 <0>         0.0528
     55 H17         2.7375   -3.5341   -2.6557 H         1 <0>         0.0774
     56 H18         1.1161   -2.7736   -2.7946 H         1 <0>         0.0839
     57 H19         2.1060   -0.5600   -2.2301 H         1 <0>         0.0907
     58 H20         3.7274   -1.3204   -2.0912 H         1 <0>         0.0386
     59 H21         4.8944   -2.0272   -4.0778 H         1 <0>         0.0443
     60 H22         3.5784   -3.2310   -4.2920 H         1 <0>         0.0904
     61 H23         4.8079   -2.7688   -6.4348 H         1 <0>         0.0975
     62 H24         3.0717   -2.3188   -6.5325 H         1 <0>         0.0598
     63 H25         3.8346    1.2513   -6.1828 H         1 <0>         0.0966
     64 H26         2.4926    0.0742   -6.3833 H         1 <0>         0.0598
     65 H27         2.5906    0.8443   -4.0347 H         1 <0>         0.0865
     66 H28         4.3163    0.3577   -3.9272 H         1 <0>         0.0417
     67 H29         2.7378   -2.9656    8.2137 H         1 <0>         0.0666
     68 H30         1.0200   -2.8540    8.7269 H         1 <0>         0.0702
     69 H31         1.5580   -5.0513   10.2195 H         1 <0>         0.1203
     70 H32         3.5158   -4.4039   11.4668 H         1 <0>         0.1077
     71 H33         3.9142   -3.0810   10.1549 H         1 <0>         0.1014
@<TRIPOS>BOND
     1    1    2 1
     2    1   40 1
     3    1   41 1
     4    1   42 1
     5    2    7 ar
     6    2    3 ar
     7    3    4 ar
     8    3   43 1
     9    4    5 ar
    10    4   36 1
    11    5    6 ar
    12    5   44 1
    13    6    7 ar
    14    6   45 1
    15    7    8 1
    16    8    9 2
    17    8   10 1
    18   10   15 1
    19   10   11 2
    20   11   12 1
    21   11   35 1
    22   12   13 2
    23   12   14 am
    24   14   15 1
    25   14   27 1
    26   15   16 1
    27   15   17 1
    28   17   22 ar
    29   17   18 ar
    30   18   19 ar
    31   18   46 1
    32   19   20 ar
    33   19   47 1
    34   20   21 ar
    35   20   25 1
    36   21   22 ar
    37   21   23 1
    38   22   48 1
    39   23   24 1
    40   24   49 1
    41   24   50 1
    42   24   51 1
    43   25   26 1
    44   26   52 1
    45   26   53 1
    46   26   54 1
    47   27   28 1
    48   27   55 1
    49   27   56 1
    50   28   29 1
    51   28   57 1
    52   28   58 1
    53   29   34 1
    54   29   30 1
    55   30   31 1
    56   30   59 1
    57   30   60 1
    58   31   32 1
    59   31   61 1
    60   31   62 1
    61   32   33 1
    62   33   34 1
    63   33   63 1
    64   33   64 1
    65   34   65 1
    66   34   66 1
    67   36   37 1
    68   37   38 1
    69   37   67 1
    70   37   68 1
    71   38   39 2
    72   38   69 1
    73   39   70 1
    74   39   71 1
@<TRIPOS>MOLECULE
ZINC33775377
   75    78     0     0     0
SMALL
USER_CHARGES
(4E,5R)-4-[hydroxy(p-tolyl)methylene]-5-(4-isopentyloxy-3-methoxy-phenyl)-1-(2-morpholinoethyl)pyrrolidine-2,3-dione
@<TRIPOS>ATOM
      1 C1          7.9449    4.5524   -7.4942 C.3       1 <0>        -0.1098
      2 C2          7.1740    4.5626   -6.1994 C.ar      1 <0>        -0.0932
      3 C3          5.7971    4.4218   -6.2168 C.ar      1 <0>        -0.1359
      4 C4          5.0847    4.4296   -5.0363 C.ar      1 <0>        -0.0858
      5 C5          5.7570    4.5802   -3.8192 C.ar      1 <0>        -0.0772
      6 C6          7.1476    4.7277   -3.8103 C.ar      1 <0>        -0.0497
      7 C7          7.8465    4.7121   -4.9988 C.ar      1 <0>        -0.1309
      8 C8          5.0032    4.5896   -2.5531 C.2       1 <0>         0.3980
      9 C9          5.3837    3.7612   -1.5177 C.2       1 <0>        -0.4964
     10 C10         4.8187    3.7412   -0.1162 C.3       1 <0>         0.2694
     11 H1          4.9507    4.7066    0.3943 H         1 <0>         0.0706
     12 N1          5.5410    2.6956    0.6140 N.am      1 <0>        -0.5992
     13 C11         6.4398    2.1289   -0.2083 C.2       1 <0>         0.4762
     14 O1          7.1946    1.2294    0.0998 O.2       1 <0>        -0.5332
     15 C12         6.3749    2.7653   -1.5522 C.2       1 <0>         0.3697
     16 O2          7.0618    2.4742   -2.5144 O.3       1 <0>        -0.4949
     17 C13         5.3183    2.3272    2.0143 C.3       1 <0>         0.1366
     18 C14         4.2545    1.2301    2.0900 C.3       1 <0>         0.0272
     19 N2          4.0312    0.8607    3.4942 N.3       1 <0>        -0.5309
     20 C15         5.2247    0.2215    4.0670 C.3       1 <0>         0.0103
     21 C16         4.9700   -0.0920    5.5438 C.3       1 <0>         0.0638
     22 O3          3.8070   -0.9167    5.6571 O.3       1 <0>        -0.3877
     23 C17         2.6259   -0.3246    5.1097 C.3       1 <0>         0.0639
     24 C18         2.8568   -0.0135    3.6286 C.3       1 <0>         0.0188
     25 C19         3.3471    3.4190   -0.1577 C.ar      1 <0>        -0.0557
     26 C20         2.9319    2.1134   -0.3433 C.ar      1 <0>        -0.1013
     27 C21         1.5832    1.8118   -0.3760 C.ar      1 <0>        -0.1818
     28 C22         0.6440    2.8208   -0.2348 C.ar      1 <0>         0.0908
     29 C23         1.0619    4.1349   -0.0485 C.ar      1 <0>         0.0941
     30 C24         2.4154    4.4296   -0.0106 C.ar      1 <0>        -0.1253
     31 O4          0.1441    5.1279    0.0966 O.3       1 <0>        -0.3117
     32 C25         0.6457    6.4527    0.2842 C.3       1 <0>         0.0243
     33 O5         -0.6832    2.5266   -0.2728 O.3       1 <0>        -0.3079
     34 C26        -1.0386    1.1563   -0.4674 C.3       1 <0>         0.0573
     35 C27        -2.5627    1.0219   -0.4820 C.3       1 <0>        -0.1133
     36 C28        -2.9433   -0.4453   -0.6903 C.3       1 <0>        -0.0942
     37 C29        -2.4757   -1.2690    0.5113 C.3       1 <0>        -0.1537
     38 C30        -4.4623   -0.5633   -0.8295 C.3       1 <0>        -0.1471
     39 O6          3.9402    5.4088   -2.4064 O.2       1 <0>        -0.6299
     40 H2          7.2474    4.4248   -8.3352 H         1 <0>         0.0594
     41 H3          8.6650    3.7209   -7.4856 H         1 <0>         0.0644
     42 H4          8.4850    5.5040   -7.6069 H         1 <0>         0.0632
     43 H5          5.2794    4.3052   -7.1574 H         1 <0>         0.1138
     44 H6          4.0105    4.3193   -5.0514 H         1 <0>         0.1178
     45 H7          7.6732    4.8493   -2.8747 H         1 <0>         0.1165
     46 H8          8.9209    4.8214   -4.9933 H         1 <0>         0.1142
     47 H9          6.2582    1.9573    2.4500 H         1 <0>         0.0775
     48 H10         4.9761    3.2092    2.5755 H         1 <0>         0.0857
     49 H11         3.3147    1.6000    1.6542 H         1 <0>         0.0985
     50 H12         4.5967    0.3481    1.5288 H         1 <0>         0.0377
     51 H13         5.4377   -0.7109    3.5236 H         1 <0>         0.0438
     52 H14         6.0840    0.9024    3.9776 H         1 <0>         0.0899
     53 H15         5.8392   -0.6211    5.9615 H         1 <0>         0.0972
     54 H16         4.8118    0.8462    6.0958 H         1 <0>         0.0599
     55 H17         1.7835   -1.0245    5.2123 H         1 <0>         0.0966
     56 H18         2.3976    0.6057    5.6505 H         1 <0>         0.0600
     57 H19         1.9725    0.4945    3.2164 H         1 <0>         0.0869
     58 H20         3.0316   -0.9497    3.0782 H         1 <0>         0.0414
     59 H21         3.6629    1.3267   -0.4583 H         1 <0>         0.1144
     60 H22         1.2615    0.7903   -0.5159 H         1 <0>         0.1242
     61 H23         2.7424    5.4486    0.1343 H         1 <0>         0.1344
     62 H24        -0.1967    7.1525    0.3871 H         1 <0>         0.0934
     63 H25         1.2569    6.7397   -0.5842 H         1 <0>         0.0626
     64 H26         1.2630    6.4856    1.1940 H         1 <0>         0.0507
     65 H27        -0.6302    0.8042   -1.4262 H         1 <0>         0.0573
     66 H28        -0.6249    0.5502    0.3521 H         1 <0>         0.0592
     67 H29        -2.9710    1.3741    0.4768 H         1 <0>         0.0730
     68 H30        -2.9764    1.6279   -1.3015 H         1 <0>         0.0733
     69 H31        -2.4610   -0.8231   -1.6039 H         1 <0>         0.0724
     70 H32        -2.7493   -2.3238    0.3615 H         1 <0>         0.0552
     71 H33        -2.9581   -0.8912    1.4249 H         1 <0>         0.0568
     72 H34        -1.3836   -1.1841    0.6113 H         1 <0>         0.0570
     73 H35        -4.7359   -1.6181   -0.9793 H         1 <0>         0.0556
     74 H36        -4.7984    0.0289   -1.6934 H         1 <0>         0.0560
     75 H37        -4.9446   -0.1855    0.0841 H         1 <0>         0.0558
@<TRIPOS>BOND
     1    1    2 1
     2    1   40 1
     3    1   41 1
     4    1   42 1
     5    2    7 ar
     6    2    3 ar
     7    3    4 ar
     8    3   43 1
     9    4    5 ar
    10    4   44 1
    11    5    6 ar
    12    5    8 1
    13    6    7 ar
    14    6   45 1
    15    7   46 1
    16    8    9 1
    17    8   39 2
    18    9   15 2
    19    9   10 1
    20   10   11 1
    21   10   12 1
    22   10   25 1
    23   12   13 am
    24   12   17 1
    25   13   14 2
    26   13   15 1
    27   15   16 1
    28   17   18 1
    29   17   47 1
    30   17   48 1
    31   18   19 1
    32   18   49 1
    33   18   50 1
    34   19   24 1
    35   19   20 1
    36   20   21 1
    37   20   51 1
    38   20   52 1
    39   21   22 1
    40   21   53 1
    41   21   54 1
    42   22   23 1
    43   23   24 1
    44   23   55 1
    45   23   56 1
    46   24   57 1
    47   24   58 1
    48   25   30 ar
    49   25   26 ar
    50   26   27 ar
    51   26   59 1
    52   27   28 ar
    53   27   60 1
    54   28   29 ar
    55   28   33 1
    56   29   30 ar
    57   29   31 1
    58   30   61 1
    59   31   32 1
    60   32   62 1
    61   32   63 1
    62   32   64 1
    63   33   34 1
    64   34   35 1
    65   34   65 1
    66   34   66 1
    67   35   36 1
    68   35   67 1
    69   35   68 1
    70   36   37 1
    71   36   38 1
    72   36   69 1
    73   37   70 1
    74   37   71 1
    75   37   72 1
    76   38   73 1
    77   38   74 1
    78   38   75 1
@<TRIPOS>MOLECULE
ZINC39491477
   64    66     0     0     0
SMALL
USER_CHARGES

@<TRIPOS>ATOM
      1 C1          1.0976    1.7910   -0.6216 C.3       1 <0>        -0.1815
      2 C2          0.6923    0.3212   -0.4941 C.3       1 <0>        -0.0946
      3 C3          1.3801   -0.2935    0.7265 C.3       1 <0>        -0.6037
      4 H1          2.4534   -0.1123    0.6683 H         1 <0>         0.1451
      5 C4          1.1181   -1.8006    0.7544 C.3       1 <0>         0.1444
      6 N1          1.8927   -2.4109    1.8378 N.pl3     1 <0>        -0.4946
      7 C5          3.2563   -2.5265    1.8595 C.2       1 <0>         0.0005
      8 C6          3.6469   -3.1321    2.9915 C.2       1 <0>        -0.0532
      9 C7          2.4328   -3.4286    3.7574 C.ar      1 <0>        -0.1126
     10 C8          1.3577   -2.9463    2.9844 C.ar      1 <0>         0.1649
     11 C9          0.0540   -3.0795    3.4579 C.ar      1 <0>        -0.1022
     12 C10        -0.1816   -3.6694    4.6642 C.ar      1 <0>        -0.0602
     13 C11         0.8796   -4.1501    5.4446 C.ar      1 <0>        -0.1764
     14 C12         2.1896   -4.0351    4.9866 C.ar      1 <0>         0.0249
     15 C13         0.6074   -4.7854    6.7479 C.2       1 <0>         0.5119
     16 O1          1.5265   -5.2020    7.4244 O.2       1 <0>        -0.5112
     17 O2         -0.6606   -4.9036    7.1880 O.3       1 <0>        -0.3551
     18 C14        -0.8506   -5.5291    8.4587 C.3       1 <0>         0.0359
     19 C15         5.0634   -3.4479    3.3974 C.3       1 <0>         0.2126
     20 N2          5.3490   -4.8573    3.1174 N.2       1 <0>        -1.1724
     21 S1          6.8413   -5.4848    3.4657 S.o2      1 <0>         2.6605
     22 O3          7.7651   -4.8407    2.5991 O.2       1 <0>        -1.0722
     23 O4          6.9748   -5.4540    4.8801 O.2       1 <0>        -1.0490
     24 O5          6.8176   -6.9524    3.0629 O.3       1 <0>        -0.6813
     25 C16         6.8848   -7.1585    1.7213 C.ar      1 <0>         0.1166
     26 C17         5.7210   -7.2207    0.9687 C.ar      1 <0>        -0.1013
     27 C18         5.7920   -7.4299   -0.3949 C.ar      1 <0>        -0.1122
     28 C19         7.0216   -7.5776   -1.0097 C.ar      1 <0>        -0.1269
     29 C20         8.1829   -7.5165   -0.2618 C.ar      1 <0>        -0.1138
     30 C21         8.1176   -7.3013    1.1012 C.ar      1 <0>        -0.1122
     31 S2          0.7203    0.4632    2.2373 S.o2      1 <0>         2.4020
     32 O6         -0.2731    1.4101    1.8689 O.2       1 <0>        -0.9409
     33 O7          0.3825   -0.5735    3.1486 O.2       1 <0>        -0.9048
     34 C22         2.1530    1.3608    2.8947 C.3       1 <0>        -0.5695
     35 C23         1.7734    2.0283    4.2180 C.3       1 <0>        -0.1396
     36 C24         3.3046    0.3812    3.1296 C.3       1 <0>        -0.1457
     37 H2          2.1846    1.8676   -0.6438 H         1 <0>         0.0593
     38 H3          0.6854    2.2030   -1.5428 H         1 <0>         0.0704
     39 H4          0.7113    2.3497    0.2310 H         1 <0>         0.0752
     40 H5         -0.3890    0.2514   -0.3754 H         1 <0>         0.0796
     41 H6          0.9948   -0.2182   -1.3917 H         1 <0>         0.0851
     42 H7          0.0561   -1.9817    0.9204 H         1 <0>         0.0967
     43 H8          1.4170   -2.2391   -0.1976 H         1 <0>         0.1015
     44 H9          3.9199   -2.1817    1.0803 H         1 <0>         0.1617
     45 H10        -0.7729   -2.7137    2.8672 H         1 <0>         0.1159
     46 H11        -1.1958   -3.7671    5.0225 H         1 <0>         0.1283
     47 H12         3.0103   -4.4026    5.5848 H         1 <0>         0.1375
     48 H13        -0.4560   -6.5447    8.4263 H         1 <0>         0.0578
     49 H14        -0.3261   -4.9598    9.2260 H         1 <0>         0.0571
     50 H15        -1.9147   -5.5602    8.6929 H         1 <0>         0.0967
     51 H16         5.7519   -2.8187    2.8333 H         1 <0>         0.0047
     52 H17         5.1871   -3.2570    4.4633 H         1 <0>         0.0077
     53 H18         4.7603   -7.1061    1.4486 H         1 <0>         0.1453
     54 H19         4.8863   -7.4784   -0.9812 H         1 <0>         0.1265
     55 H20         7.0750   -7.7414   -2.0759 H         1 <0>         0.1216
     56 H21         9.1422   -7.6325   -0.7443 H         1 <0>         0.1254
     57 H22         9.0251   -7.2492    1.6843 H         1 <0>         0.1261
     58 H23         2.4640    2.1224    2.1796 H         1 <0>         0.1285
     59 H24         1.4624    1.2667    4.9331 H         1 <0>         0.0764
     60 H25         2.6343    2.5677    4.6130 H         1 <0>         0.0812
     61 H26         0.9529    2.7261    4.0507 H         1 <0>         0.0673
     62 H27         3.6399   -0.0213    2.1737 H         1 <0>         0.0695
     63 H28         4.1307    0.9012    3.6146 H         1 <0>         0.0793
     64 H29         2.9637   -0.4341    3.7677 H         1 <0>         0.0854
@<TRIPOS>BOND
     1    1    2 1
     2    1   37 1
     3    1   38 1
     4    1   39 1
     5    2    3 1
     6    2   40 1
     7    2   41 1
     8    3    4 1
     9    3    5 1
    10    3   31 1
    11    5    6 1
    12    5   42 1
    13    5   43 1
    14    6   10 1
    15    6    7 1
    16    7    8 2
    17    7   44 1
    18    8    9 1
    19    8   19 1
    20    9   14 ar
    21    9   10 ar
    22   10   11 ar
    23   11   12 ar
    24   11   45 1
    25   12   13 ar
    26   12   46 1
    27   13   14 ar
    28   13   15 1
    29   14   47 1
    30   15   16 2
    31   15   17 1
    32   17   18 1
    33   18   48 1
    34   18   49 1
    35   18   50 1
    36   19   20 1
    37   19   51 1
    38   19   52 1
    39   20   21 1
    40   21   22 2
    41   21   23 2
    42   21   24 1
    43   24   25 1
    44   25   30 ar
    45   25   26 ar
    46   26   27 ar
    47   26   53 1
    48   27   28 ar
    49   27   54 1
    50   28   29 ar
    51   28   55 1
    52   29   30 ar
    53   29   56 1
    54   30   57 1
    55   31   32 2
    56   31   33 2
    57   31   34 1
    58   34   35 1
    59   34   36 1
    60   34   58 1
    61   35   59 1
    62   35   60 1
    63   35   61 1
    64   36   62 1
    65   36   63 1
    66   36   64 1
@<TRIPOS>MOLECULE
ZINC33860916
   68    71     0     0     0
SMALL
USER_CHARGES

@<TRIPOS>ATOM
      1 C1         -0.0184    1.5028    0.0103 C.3       1 <0>        -0.0922
      2 C2          0.0021   -0.0041    0.0020 C.ar      1 <0>        -0.1428
      3 C3          0.0058   -0.6919   -1.2019 C.ar      1 <0>         0.1349
      4 C4          0.0245   -2.0793   -1.2069 C.ar      1 <0>        -0.2218
      5 C5          0.0391   -2.7756   -0.0132 C.ar      1 <0>        -0.0461
      6 C6          0.0350   -2.0925    1.1876 C.ar      1 <0>        -0.1321
      7 C7          0.0229   -0.7046    1.1979 C.ar      1 <0>         0.1661
      8 O1          0.0255   -0.0332    2.3794 O.3       1 <0>        -0.3091
      9 C8         -1.2464    0.2704    2.9558 C.3       1 <0>         0.0303
     10 C9          0.0499   -2.8549    2.4875 C.3       1 <0>         0.1515
     11 H1         -0.6204   -2.3850    3.2071 H         1 <0>         0.0839
     12 C10         1.4621   -2.9141    3.0457 C.3       1 <0>        -0.1407
     13 H2          1.4708   -3.0430    4.1280 H         1 <0>         0.1301
     14 C11         1.9674   -4.1883    2.2667 C.3       1 <0>        -0.1327
     15 H3          1.8353   -3.9252    1.2172 H         1 <0>         0.0944
     16 C12         3.3956   -4.0865    2.4344 C.2       1 <0>         0.5756
     17 O2          4.1912   -4.9941    2.5481 O.2       1 <0>        -0.4503
     18 N1          3.6596   -2.7392    2.4368 N.am      1 <0>        -0.5988
     19 C13         2.5263   -1.9700    2.5810 C.2       1 <0>         0.5520
     20 O3          2.4080   -0.7817    2.3725 O.2       1 <0>        -0.4378
     21 C14         5.0061   -2.1757    2.3114 C.3       1 <0>         0.1580
     22 C15         5.6223   -2.6180    0.9827 C.3       1 <0>        -0.1582
     23 C16         4.9257   -0.6484    2.3529 C.3       1 <0>        -0.1464
     24 C17         5.8765   -2.6722    3.4676 C.3       1 <0>        -0.1625
     25 C18         0.8683   -5.1415    2.4952 C.3       1 <0>         0.0698
     26 N2         -0.3522   -4.2755    2.2579 N.3       1 <0>        -0.6483
     27 C19         0.9202   -6.2851    1.4802 C.3       1 <0>        -0.0552
     28 C20        -0.2834   -7.1735    1.6622 C.ar      1 <0>        -0.0045
     29 C21        -0.2260   -8.2452    2.5334 C.ar      1 <0>        -0.0960
     30 C22        -1.3301   -9.0601    2.7004 C.ar      1 <0>        -0.0532
     31 C23        -2.4917   -8.8029    1.9966 C.ar      1 <0>        -0.0614
     32 C24        -2.5494   -7.7307    1.1261 C.ar      1 <0>        -0.0615
     33 C25        -1.4467   -6.9133    0.9623 C.ar      1 <0>        -0.1033
     34 N3         -3.6736   -9.6760    2.1747 N.pl3     1 <0>         0.0419
     35 O4         -3.6230  -10.6141    2.9357 O.2       1 <0>        -0.1716
     36 O5         -4.6896   -9.4512    1.5591 O.3       1 <0>        -0.1742
     37 C26         0.9040   -5.6725    3.9051 C.2       1 <0>         0.4905
     38 O6         -0.0468   -5.4955    4.6475 O.co2     1 <0>        -0.6843
     39 O7          1.8837   -6.2792    4.3034 O.co2     1 <0>        -0.6680
     40 O8         -0.0095   -0.0078   -2.3760 O.3       1 <0>        -0.3157
     41 C27        -0.0046   -0.7812   -3.5776 C.3       1 <0>         0.0287
     42 H4          1.0042    1.8801    0.0026 H         1 <0>         0.0660
     43 H5         -0.5455    1.8639   -0.8728 H         1 <0>         0.0630
     44 H6         -0.5286    1.8543    0.9071 H         1 <0>         0.0625
     45 H7          0.0274   -2.6155   -2.1444 H         1 <0>         0.1260
     46 H8          0.0534   -3.8554   -0.0192 H         1 <0>         0.1404
     47 H9         -1.1015    0.8062    3.8939 H         1 <0>         0.0924
     48 H10        -1.8184    0.8920    2.2669 H         1 <0>         0.0434
     49 H11        -1.7893   -0.6553    3.1462 H         1 <0>         0.0462
     50 H12         5.0022   -2.2643    0.1590 H         1 <0>         0.0579
     51 H13         6.6241   -2.1988    0.8893 H         1 <0>         0.0710
     52 H14         5.6796   -3.7061    0.9531 H         1 <0>         0.0665
     53 H15         4.4867   -0.3333    3.2995 H         1 <0>         0.0631
     54 H16         5.9275   -0.2291    2.2596 H         1 <0>         0.0632
     55 H17         4.3056   -0.2947    1.5292 H         1 <0>         0.0756
     56 H18         5.9338   -3.7603    3.4380 H         1 <0>         0.0764
     57 H19         6.8783   -2.2530    3.3743 H         1 <0>         0.0683
     58 H20         5.4375   -2.3571    4.4142 H         1 <0>         0.0582
     59 H21        -1.1055   -4.5422    2.8739 H         1 <0>         0.3599
     60 H22         0.9196   -5.8749    0.4703 H         1 <0>         0.0738
     61 H23         1.8284   -6.8676    1.6352 H         1 <0>         0.0922
     62 H24         0.6815   -8.4461    3.0833 H         1 <0>         0.1500
     63 H25        -1.2850   -9.8978    3.3806 H         1 <0>         0.1471
     64 H26        -3.4568   -7.5300    0.5759 H         1 <0>         0.1460
     65 H27        -1.4930   -6.0733    0.2850 H         1 <0>         0.1466
     66 H28         0.8939   -1.3975   -3.6094 H         1 <0>         0.0539
     67 H29        -0.8859   -1.4222   -3.6007 H         1 <0>         0.0547
     68 H30        -0.0180   -0.1138   -4.4393 H         1 <0>         0.0967
@<TRIPOS>BOND
     1    1    2 1
     2    1   42 1
     3    1   43 1
     4    1   44 1
     5    2    7 ar
     6    2    3 ar
     7    3    4 ar
     8    3   40 1
     9    4    5 ar
    10    4   45 1
    11    5    6 ar
    12    5   46 1
    13    6    7 ar
    14    6   10 1
    15    7    8 1
    16    8    9 1
    17    9   47 1
    18    9   48 1
    19    9   49 1
    20   10   11 1
    21   10   26 1
    22   10   12 1
    23   12   13 1
    24   12   19 1
    25   12   14 1
    26   14   15 1
    27   14   16 1
    28   14   25 1
    29   16   17 2
    30   16   18 am
    31   18   19 am
    32   18   21 1
    33   19   20 2
    34   21   22 1
    35   21   23 1
    36   21   24 1
    37   22   50 1
    38   22   51 1
    39   22   52 1
    40   23   53 1
    41   23   54 1
    42   23   55 1
    43   24   56 1
    44   24   57 1
    45   24   58 1
    46   25   26 1
    47   25   27 1
    48   25   37 1
    49   26   59 1
    50   27   28 1
    51   27   60 1
    52   27   61 1
    53   28   33 ar
    54   28   29 ar
    55   29   30 ar
    56   29   62 1
    57   30   31 ar
    58   30   63 1
    59   31   32 ar
    60   31   34 1
    61   32   33 ar
    62   32   64 1
    63   33   65 1
    64   34   35 2
    65   34   36 1
    66   37   38 2
    67   37   39 1
    68   40   41 1
    69   41   66 1
    70   41   67 1
    71   41   68 1
@<TRIPOS>MOLECULE
ZINC06470871
   37    38     0     0     0
SMALL
USER_CHARGES
5-[2-(2,4-dichlorophenoxy)propanoylamino]benzene-1,3-dicarboxylic acid
@<TRIPOS>ATOM
      1 C1          6.5566    6.7757   -0.8698 C.3       1 <0>        -0.1782
      2 C2          6.2273    5.7344    0.2018 C.3       1 <0>         0.0667
      3 H1          6.1231    6.2280    1.1681 H         1 <0>         0.1031
      4 C3          4.9360    5.0420   -0.1505 C.2       1 <0>         0.5033
      5 O1          4.9196    3.8420   -0.3259 O.2       1 <0>        -0.4823
      6 N1          3.7994    5.7562   -0.2706 N.am      1 <0>        -0.6558
      7 C4          2.5819    5.1021   -0.4933 C.ar      1 <0>         0.0855
      8 C5          1.6022    5.7078   -1.2660 C.ar      1 <0>        -0.1019
      9 C6          0.3866    5.0583   -1.4903 C.ar      1 <0>        -0.1252
     10 C7          0.1583    3.7998   -0.9366 C.ar      1 <0>        -0.0339
     11 C8          1.1450    3.1942   -0.1606 C.ar      1 <0>        -0.1246
     12 C9          2.3562    3.8520    0.0637 C.ar      1 <0>        -0.0776
     13 C10         0.9074    1.8603    0.4289 C.2       1 <0>         0.4969
     14 O2          1.7679    1.3331    1.1051 O.co2     1 <0>        -0.6407
     15 C11        -0.6566    5.7046   -2.3132 C.2       1 <0>         0.4985
     16 O3         -0.4569    6.8014   -2.7955 O.co2     1 <0>        -0.6476
     17 O4          7.2810    4.7715    0.2700 O.3       1 <0>        -0.2634
     18 C12         8.3500    5.0806    1.0509 C.ar      1 <0>         0.1552
     19 C13         8.4388    6.3317    1.6431 C.ar      1 <0>        -0.1922
     20 C14         9.5237    6.6426    2.4399 C.ar      1 <0>        -0.0628
     21 C15        10.5267    5.7104    2.6399 C.ar      1 <0>        -0.0687
     22 C16        10.4433    4.4636    2.0463 C.ar      1 <0>        -0.0634
     23 C17         9.3569    4.1467    1.2521 C.ar      1 <0>        -0.0600
     24 Cl1         9.2526    2.5823    0.5066 Cl        1 <0>        -0.0332
     25 Cl2        11.8917    6.1063    3.6368 Cl        1 <0>        -0.0670
     26 H2          6.6608    6.2821   -1.8360 H         1 <0>         0.0800
     27 H3          5.7529    7.5102   -0.9218 H         1 <0>         0.0849
     28 H4          7.4905    7.2765   -0.6149 H         1 <0>         0.0735
     29 H5          3.8249    6.7235   -0.2028 H         1 <0>         0.4020
     30 H6          1.7800    6.6829   -1.6951 H         1 <0>         0.1223
     31 H7         -0.7811    3.2953   -1.1081 H         1 <0>         0.1412
     32 H8          3.1195    3.3852    0.6686 H         1 <0>         0.1321
     33 H9          7.6583    7.0611    1.4844 H         1 <0>         0.1504
     34 H10         9.5910    7.6155    2.9040 H         1 <0>         0.1418
     35 H11        11.2274    3.7376    2.2030 H         1 <0>         0.1488
     36 O5         -0.2634    1.2289    0.2166 O.co2     1 <0>        -0.7555
     37 O6         -1.8292    5.0775   -2.5287 O.co2     1 <0>        -0.7522
@<TRIPOS>BOND
     1    1    2 1
     2    1   26 1
     3    1   27 1
     4    1   28 1
     5    2    3 1
     6    2    4 1
     7    2   17 1
     8    4    5 2
     9    4    6 am
    10    6    7 1
    11    6   29 1
    12    7   12 ar
    13    7    8 ar
    14    8    9 ar
    15    8   30 1
    16    9   10 ar
    17    9   15 1
    18   10   11 ar
    19   10   31 1
    20   11   12 ar
    21   11   13 1
    22   12   32 1
    23   13   14 2
    24   13   36 1
    25   15   16 2
    26   15   37 1
    27   17   18 1
    28   18   23 ar
    29   18   19 ar
    30   19   20 ar
    31   19   33 1
    32   20   21 ar
    33   20   34 1
    34   21   22 ar
    35   21   25 1
    36   22   23 ar
    37   22   35 1
    38   23   24 1
@<TRIPOS>MOLECULE
ZINC16911235
   48    50     0     0     0
SMALL
USER_CHARGES
(2R)-2-[2-[(E)-[2-[(4-acetylphenyl)amino]-4-oxo-thiazol-5-ylidene]methyl]phenoxy]butanoic acid
@<TRIPOS>ATOM
      1 C1          9.4133   -5.9947    8.3500 C.3       1 <0>        -0.1532
      2 C2          9.5985   -4.9854    9.4848 C.3       1 <0>        -0.1239
      3 C3          9.3236   -3.5740    8.9621 C.3       1 <0>         0.0366
      4 H1          9.9118   -3.3530    8.0592 H         1 <0>         0.0789
      5 C4          9.6244   -2.5699   10.0447 C.2       1 <0>         0.4695
      6 O1          8.7339   -1.9000   10.5118 O.co2     1 <0>        -0.6095
      7 O2         10.8817   -2.4196   10.4902 O.co2     1 <0>        -0.7625
      8 O3          7.9506   -3.4663    8.5806 O.3       1 <0>        -0.2831
      9 C5          7.6585   -3.6590    7.2695 C.ar      1 <0>         0.1693
     10 C6          8.6724   -3.9177    6.3610 C.ar      1 <0>        -0.2330
     11 C7          8.3745   -4.1081    5.0254 C.ar      1 <0>        -0.0701
     12 C8          7.0626   -4.0478    4.5829 C.ar      1 <0>        -0.1810
     13 C9          6.0399   -3.7975    5.4709 C.ar      1 <0>        -0.0055
     14 C10         6.3263   -3.6025    6.8275 C.ar      1 <0>        -0.1067
     15 C11         5.2426   -3.3349    7.7802 C.2       1 <0>         0.0329
     16 C12         4.2439   -2.4772    7.4487 C.2       1 <0>        -0.2150
     17 C13         4.1104   -1.5843    6.2742 C.2       1 <0>         0.5323
     18 O4          4.9679   -1.5283    5.4071 O.2       1 <0>        -0.5152
     19 N1          3.0173   -0.8558    6.2167 N.2       1 <0>        -0.7109
     20 C14         2.0799   -0.9072    7.1494 C.2       1 <0>         0.4609
     21 S1          2.7223   -2.1024    8.3107 S.3       1 <0>        -0.1313
     22 N2          0.9018   -0.2070    7.2122 N.2       1 <0>        -0.5899
     23 C15         0.5231    0.6138    6.1544 C.ar      1 <0>         0.2175
     24 C16         0.9923    0.3515    4.8696 C.ar      1 <0>        -0.1841
     25 C17         0.6235    1.1548    3.8284 C.ar      1 <0>        -0.0348
     26 C18        -0.2284    2.2437    4.0543 C.ar      1 <0>        -0.2530
     27 C19        -0.6940    2.5067    5.3490 C.ar      1 <0>        -0.0521
     28 C20        -0.3236    1.6955    6.3836 C.ar      1 <0>        -0.1694
     29 C21        -0.6271    3.1103    2.9383 C.2       1 <0>         0.3993
     30 O5         -0.2189    2.8839    1.8187 O.2       1 <0>        -0.4893
     31 C22        -1.5437    4.2811    3.1837 C.3       1 <0>        -0.1984
     32 H2          9.6110   -7.0094    8.7259 H         1 <0>         0.0487
     33 H3         10.1144   -5.7626    7.5348 H         1 <0>         0.0529
     34 H4          8.3813   -5.9377    7.9734 H         1 <0>         0.0569
     35 H5          8.8974   -5.2175   10.3000 H         1 <0>         0.0672
     36 H6         10.6304   -5.0424    9.8614 H         1 <0>         0.0829
     37 H7          9.6976   -3.9669    6.6969 H         1 <0>         0.1316
     38 H8          9.1695   -4.3049    4.3214 H         1 <0>         0.1146
     39 H9          6.8411   -4.1981    3.5366 H         1 <0>         0.1148
     40 H10         5.0190   -3.7521    5.1215 H         1 <0>         0.1226
     41 H11         5.2395   -3.8292    8.7629 H         1 <0>         0.1362
     42 H12         1.6490   -0.4882    4.6964 H         1 <0>         0.1442
     43 H13         0.9878    0.9507    2.8325 H         1 <0>         0.1152
     44 H14        -1.3476    3.3475    5.5282 H         1 <0>         0.1168
     45 H15        -0.6851    1.8953    7.3815 H         1 <0>         0.1191
     46 H16        -1.7278    4.8077    2.2356 H         1 <0>         0.0741
     47 H17        -1.0740    4.9704    3.9008 H         1 <0>         0.0888
     48 H18        -2.4983    3.9197    3.5938 H         1 <0>         0.0881
@<TRIPOS>BOND
     1    1    2 1
     2    1   32 1
     3    1   33 1
     4    1   34 1
     5    2    3 1
     6    2   35 1
     7    2   36 1
     8    3    4 1
     9    3    5 1
    10    3    8 1
    11    5    6 2
    12    5    7 1
    13    8    9 1
    14    9   14 ar
    15    9   10 ar
    16   10   11 ar
    17   10   37 1
    18   11   12 ar
    19   11   38 1
    20   12   13 ar
    21   12   39 1
    22   13   14 ar
    23   13   40 1
    24   14   15 1
    25   15   16 2
    26   15   41 1
    27   16   21 1
    28   16   17 1
    29   17   18 2
    30   17   19 1
    31   19   20 2
    32   20   21 1
    33   20   22 1
    34   22   23 1
    35   23   28 ar
    36   23   24 ar
    37   24   25 ar
    38   24   42 1
    39   25   26 ar
    40   25   43 1
    41   26   27 ar
    42   26   29 1
    43   27   28 ar
    44   27   44 1
    45   28   45 1
    46   29   30 2
    47   29   31 1
    48   31   46 1
    49   31   47 1
    50   31   48 1
@<TRIPOS>MOLECULE
ZINC13450075
   40    42     0     0     0
SMALL
USER_CHARGES

@<TRIPOS>ATOM
      1 C1         -0.0184    1.5028    0.0103 C.3       1 <0>        -0.0912
      2 C2          0.0021   -0.0041    0.0020 C.ar      1 <0>         0.1580
      3 N1          0.0058   -0.6672   -1.1444 N.ar      1 <0>        -0.5821
      4 C3          0.0242   -1.9922   -1.1637 C.ar      1 <0>         0.3142
      5 N2          0.0395   -2.7033   -0.0452 N.ar      1 <0>        -0.6221
      6 C4          0.0368   -2.1025    1.1382 C.ar      1 <0>         0.4468
      7 O1          0.0525   -2.8329    2.2795 O.3       1 <0>        -0.6871
      8 C5          0.0229   -0.7090    1.1907 C.ar      1 <0>        -0.2644
      9 C6          0.0257    0.0120    2.5140 C.3       1 <0>        -0.0173
     10 C7         -1.4157    0.2364    2.9755 C.3       1 <0>        -0.1657
     11 C8         -1.4130    0.9575    4.2988 C.2       1 <0>         0.4941
     12 O2         -0.3562    1.2636    4.8241 O.co2     1 <0>        -0.7029
     13 O3         -2.4676    1.2348    4.8441 O.co2     1 <0>        -0.7213
     14 S1          0.0278   -2.8292   -2.7143 S.3       1 <0>        -0.0150
     15 C9          0.0546   -4.5863   -2.2644 C.3       1 <0>        -0.0346
     16 C10         0.0598   -5.4253   -3.5163 C.2       1 <0>         0.3322
     17 N3          1.1193   -5.8386   -4.1511 N.2       1 <0>        -0.5269
     18 C11         0.7591   -6.5637   -5.2253 C.2       1 <0>         0.2809
     19 N4         -0.5492   -6.6139   -5.2769 N.2       1 <0>        -0.3144
     20 O4         -1.0242   -5.8765   -4.1604 O.3       1 <0>        -0.0958
     21 C12         1.6885   -7.2003   -6.1912 C.ar      1 <0>        -0.0197
     22 C13         3.0661   -7.0766   -6.0217 C.ar      1 <0>        -0.0531
     23 C14         3.9259   -7.6709   -6.9226 C.ar      1 <0>        -0.1213
     24 C15         3.4232   -8.3889   -7.9932 C.ar      1 <0>        -0.0873
     25 C16         2.0574   -8.5156   -8.1673 C.ar      1 <0>        -0.1190
     26 C17         1.1868   -7.9292   -7.2687 C.ar      1 <0>        -0.0078
     27 Cl1        -0.5278   -8.0943   -7.4844 Cl        1 <0>        -0.0346
     28 H1          1.0042    1.8801    0.0026 H         1 <0>         0.0645
     29 H2         -0.5455    1.8639   -0.8728 H         1 <0>         0.0615
     30 H3         -0.5286    1.8543    0.9071 H         1 <0>         0.0759
     31 H4          0.5547   -0.5885    3.2539 H         1 <0>         0.0652
     32 H5          0.5254    0.9743    2.4024 H         1 <0>         0.0492
     33 H6         -1.9448    0.8370    2.2355 H         1 <0>         0.0449
     34 H7         -1.9155   -0.7258    3.0871 H         1 <0>         0.0551
     35 H8          0.9507   -4.7984   -1.6812 H         1 <0>         0.1415
     36 H9         -0.8291   -4.8232   -1.6719 H         1 <0>         0.1328
     37 H10         3.4601   -6.5162   -5.1868 H         1 <0>         0.1517
     38 H11         4.9937   -7.5751   -6.7920 H         1 <0>         0.1387
     39 H12         4.1003   -8.8519   -8.6958 H         1 <0>         0.1367
     40 H13         1.6705   -9.0771   -9.0048 H         1 <0>         0.1398
@<TRIPOS>BOND
     1    1    2 1
     2    1   28 1
     3    1   29 1
     4    1   30 1
     5    2    8 ar
     6    2    3 ar
     7    3    4 ar
     8    4    5 ar
     9    4   14 1
    10    5    6 ar
    11    6    7 1
    12    6    8 ar
    13    8    9 1
    14    9   10 1
    15    9   31 1
    16    9   32 1
    17   10   11 1
    18   10   33 1
    19   10   34 1
    20   11   12 2
    21   11   13 1
    22   14   15 1
    23   15   16 1
    24   15   35 1
    25   15   36 1
    26   16   20 1
    27   16   17 2
    28   17   18 1
    29   18   19 2
    30   18   21 1
    31   19   20 1
    32   21   26 ar
    33   21   22 ar
    34   22   23 ar
    35   22   37 1
    36   23   24 ar
    37   23   38 1
    38   24   25 ar
    39   24   39 1
    40   25   26 ar
    41   25   40 1
    42   26   27 1
@<TRIPOS>MOLECULE
ZINC39869955
   39    41     0     0     0
SMALL
USER_CHARGES

@<TRIPOS>ATOM
      1 C1         -0.6651    1.4898    0.0632 C.3       1 <0>        -0.1186
      2 C2         -0.6506   -0.0171    0.0574 C.2       1 <0>         0.0483
      3 C3         -0.4446   -0.6978    1.2124 C.2       1 <0>        -0.2026
      4 C4         -0.2190   -0.1900    2.5869 C.2       1 <0>         0.5439
      5 O1         -0.1950    1.0046    2.8362 O.2       1 <0>        -0.4569
      6 N1         -0.0468   -1.0975    3.5222 N.2       1 <0>        -0.6316
      7 C5         -0.0710   -2.3958    3.2653 C.2       1 <0>         0.4926
      8 S1         -0.3764   -2.4606    1.5068 S.3       1 <0>        -0.0867
      9 N2          0.0928   -3.4389    4.1391 N.pl3     1 <0>        -0.5533
     10 C6          0.2027   -3.1911    5.5114 C.ar      1 <0>         0.0607
     11 C7         -0.4113   -2.0768    6.0645 C.ar      1 <0>        -0.0680
     12 C8         -0.3038   -1.8258    7.4350 C.ar      1 <0>        -0.1419
     13 C9          0.4213   -2.6973    8.2468 C.ar      1 <0>        -0.0376
     14 C10         1.0366   -3.8165    7.6872 C.ar      1 <0>        -0.1437
     15 C11         0.9205   -4.0633    6.3166 C.ar      1 <0>        -0.0928
     16 C12         1.8056   -4.7416    8.5420 C.2       1 <0>         0.5287
     17 O2          1.9034   -4.5270    9.7419 O.co2     1 <0>        -0.6838
     18 O3          2.3449   -5.7229    8.0504 O.co2     1 <0>        -0.7010
     19 C13        -0.9565   -0.6397    8.0223 C.2       1 <0>         0.5266
     20 O4         -1.5918    0.1243    7.3096 O.co2     1 <0>        -0.6902
     21 O5         -0.8619   -0.4208    9.2217 O.co2     1 <0>        -0.6893
     22 C14        -0.8597   -0.7488   -1.1993 C.ar      1 <0>        -0.0706
     23 C15         0.1670   -1.5362   -1.7337 C.ar      1 <0>        -0.0654
     24 C16        -0.0362   -2.2200   -2.9123 C.ar      1 <0>        -0.1497
     25 C17        -1.2543   -2.1294   -3.5693 C.ar      1 <0>         0.0998
     26 C18        -2.2759   -1.3512   -3.0455 C.ar      1 <0>        -0.1524
     27 C19        -2.0886   -0.6666   -1.8648 C.ar      1 <0>        -0.0669
     28 F1         -1.4465   -2.8020   -4.7252 F         1 <0>        -0.1411
     29 H1          0.3441    1.8635   -0.1099 H         1 <0>         0.0854
     30 H2         -1.3261    1.8499   -0.7251 H         1 <0>         0.0723
     31 H3         -1.0237    1.8460    1.0290 H         1 <0>         0.0985
     32 H4          0.1325   -4.3491    3.8060 H         1 <0>         0.4285
     33 H5         -0.9727   -1.4023    5.4351 H         1 <0>         0.1436
     34 H6          0.5065   -2.5058    9.3062 H         1 <0>         0.1365
     35 H7          1.3937   -4.9320    5.8831 H         1 <0>         0.1249
     36 H8          1.1162   -1.6070   -1.2235 H         1 <0>         0.1383
     37 H9          0.7550   -2.8279   -3.3258 H         1 <0>         0.1387
     38 H10        -3.2218   -1.2848   -3.5625 H         1 <0>         0.1380
     39 H11        -2.8864   -0.0645   -1.4557 H         1 <0>         0.1389
@<TRIPOS>BOND
     1    1    2 1
     2    1   29 1
     3    1   30 1
     4    1   31 1
     5    2    3 2
     6    2   22 1
     7    3    8 1
     8    3    4 1
     9    4    5 2
    10    4    6 1
    11    6    7 2
    12    7    8 1
    13    7    9 1
    14    9   10 1
    15    9   32 1
    16   10   15 ar
    17   10   11 ar
    18   11   12 ar
    19   11   33 1
    20   12   13 ar
    21   12   19 1
    22   13   14 ar
    23   13   34 1
    24   14   15 ar
    25   14   16 1
    26   15   35 1
    27   16   17 2
    28   16   18 1
    29   19   20 2
    30   19   21 1
    31   22   27 ar
    32   22   23 ar
    33   23   24 ar
    34   23   36 1
    35   24   25 ar
    36   24   37 1
    37   25   26 ar
    38   25   28 1
    39   26   27 ar
    40   26   38 1
    41   27   39 1
@<TRIPOS>MOLECULE
ZINC16917690
   50    52     0     0     0
SMALL
USER_CHARGES

@<TRIPOS>ATOM
      1 C1          1.0968    1.7496    1.3770 C.3       1 <0>        -0.1459
      2 C2          0.3311    0.5200    0.8843 C.3       1 <0>         0.0523
      3 O1          0.2769    0.5333   -0.5436 O.3       1 <0>        -0.2999
      4 C3         -0.3735   -0.4978   -1.1464 C.ar      1 <0>         0.0822
      5 C4         -0.9489   -1.4925   -0.3809 C.ar      1 <0>        -0.0923
      6 C5         -1.6179   -2.5527   -1.0052 C.ar      1 <0>        -0.0825
      7 C6         -1.6991   -2.5976   -2.4026 C.ar      1 <0>        -0.0909
      8 C7         -1.1220   -1.6008   -3.1577 C.ar      1 <0>        -0.2013
      9 C8         -0.4639   -0.5470   -2.5371 C.ar      1 <0>         0.1277
     10 O2          0.0981    0.4361   -3.2873 O.3       1 <0>        -0.2678
     11 C9          0.0821    0.2596   -4.7052 C.3       1 <0>         0.0114
     12 H1          0.2059   -0.7973   -4.9412 H         1 <0>         0.0654
     13 C10        -1.2528    0.7544   -5.2658 C.3       1 <0>        -0.1562
     14 C11         1.2090    1.0474   -5.3222 C.2       1 <0>         0.5066
     15 O3          1.4298    0.9610   -6.5181 O.co2     1 <0>        -0.6943
     16 O4          1.8998    1.7711   -4.6254 O.co2     1 <0>        -0.6696
     17 C12        -2.2316   -3.6139   -0.1974 C.2       1 <0>         0.0051
     18 C13        -2.8744   -3.3025    0.9567 C.2       1 <0>        -0.2016
     19 C14        -3.2460   -1.9787    1.5088 C.2       1 <0>         0.5247
     20 O5         -2.9845   -0.9402    0.9228 O.2       1 <0>        -0.5176
     21 N1         -3.8731   -1.9840    2.6643 N.2       1 <0>        -0.7128
     22 C15        -4.1629   -3.1027    3.3098 C.2       1 <0>         0.4529
     23 S1         -3.5181   -4.3750    2.2350 S.3       1 <0>        -0.1520
     24 N2         -4.8069   -3.2494    4.5111 N.2       1 <0>        -0.5787
     25 C16        -5.4218   -2.1480    5.1138 C.ar      1 <0>         0.1668
     26 C17        -5.8104   -1.0595    4.3429 C.ar      1 <0>        -0.1558
     27 C18        -6.4179    0.0266    4.9412 C.ar      1 <0>        -0.1117
     28 C19        -6.6396    0.0317    6.3064 C.ar      1 <0>        -0.1736
     29 C20        -6.2536   -1.0498    7.0766 C.ar      1 <0>        -0.1133
     30 C21        -5.6506   -2.1419    6.4836 C.ar      1 <0>        -0.1182
     31 C22        -5.2364   -3.3230    7.3229 C.3       1 <0>        -0.0904
     32 H2          2.1097    1.7321    0.9748 H         1 <0>         0.0631
     33 H3          0.5881    2.6531    1.0411 H         1 <0>         0.0644
     34 H4          1.1381    1.7395    2.4662 H         1 <0>         0.0698
     35 H5          0.8398   -0.3835    1.2202 H         1 <0>         0.0502
     36 H6         -0.6819    0.5376    1.2865 H         1 <0>         0.0679
     37 H7         -0.8830   -1.4532    0.6964 H         1 <0>         0.1317
     38 H8         -2.2138   -3.4137   -2.8878 H         1 <0>         0.1205
     39 H9         -1.1852   -1.6363   -4.2352 H         1 <0>         0.1340
     40 H10        -2.0678    0.1846   -4.8195 H         1 <0>         0.0498
     41 H11        -1.3765    1.8113   -5.0298 H         1 <0>         0.0579
     42 H12        -1.2649    0.6198   -6.3474 H         1 <0>         0.0692
     43 H13        -2.1715   -4.6424   -0.5215 H         1 <0>         0.1283
     44 H14        -5.6373   -1.0627    3.2768 H         1 <0>         0.1391
     45 H15        -6.7200    0.8732    4.3425 H         1 <0>         0.1051
     46 H16        -7.1149    0.8824    6.7719 H         1 <0>         0.1035
     47 H17        -6.4275   -1.0423    8.1425 H         1 <0>         0.1070
     48 H18        -4.2160   -3.1770    7.6772 H         1 <0>         0.0523
     49 H19        -5.9077   -3.4153    8.1767 H         1 <0>         0.0449
     50 H20        -5.2860   -4.2310    6.7219 H         1 <0>         0.0723
@<TRIPOS>BOND
     1    1    2 1
     2    1   32 1
     3    1   33 1
     4    1   34 1
     5    2    3 1
     6    2   35 1
     7    2   36 1
     8    3    4 1
     9    4    9 ar
    10    4    5 ar
    11    5    6 ar
    12    5   37 1
    13    6    7 ar
    14    6   17 1
    15    7    8 ar
    16    7   38 1
    17    8    9 ar
    18    8   39 1
    19    9   10 1
    20   10   11 1
    21   11   12 1
    22   11   13 1
    23   11   14 1
    24   13   40 1
    25   13   41 1
    26   13   42 1
    27   14   15 2
    28   14   16 1
    29   17   18 2
    30   17   43 1
    31   18   23 1
    32   18   19 1
    33   19   20 2
    34   19   21 1
    35   21   22 2
    36   22   23 1
    37   22   24 1
    38   24   25 1
    39   25   30 ar
    40   25   26 ar
    41   26   27 ar
    42   26   44 1
    43   27   28 ar
    44   27   45 1
    45   28   29 ar
    46   28   46 1
    47   29   30 ar
    48   29   47 1
    49   30   31 1
    50   31   48 1
    51   31   49 1
    52   31   50 1
@<TRIPOS>MOLECULE
ZINC16936594
   43    45     0     0     0
SMALL
USER_CHARGES

@<TRIPOS>ATOM
      1 C1          0.7284    0.0167    0.1088 C.3       1 <0>        -0.1564
      2 C2          0.2433   -1.4299    0.2226 C.3       1 <0>         0.0093
      3 H1          0.5760   -1.8510    1.1713 H         1 <0>         0.0712
      4 C3          0.8109   -2.2409   -0.9136 C.2       1 <0>         0.5059
      5 O1          2.0142   -2.4205   -0.9928 O.co2     1 <0>        -0.6867
      6 O2          0.0669   -2.7173   -1.7538 O.co2     1 <0>        -0.6673
      7 O3         -1.1841   -1.4597    0.1626 O.3       1 <0>        -0.2715
      8 C4         -1.8541   -1.2603    1.3260 C.ar      1 <0>         0.1829
      9 C5         -1.1607   -0.9450    2.4833 C.ar      1 <0>        -0.2264
     10 C6         -1.8437   -0.7417    3.6672 C.ar      1 <0>        -0.0515
     11 C7         -3.2243   -0.8511    3.7090 C.ar      1 <0>        -0.1702
     12 C8         -3.9321   -1.1637    2.5692 C.ar      1 <0>        -0.0504
     13 C9         -3.2542   -1.3668    1.3613 C.ar      1 <0>        -0.1419
     14 C10        -4.0011   -1.6947    0.1411 C.2       1 <0>         0.1033
     15 C11        -5.2696   -2.1711    0.2289 C.2       1 <0>        -0.2497
     16 C12        -6.2485   -2.4309   -0.8436 C.2       1 <0>         0.5652
     17 O4         -5.9818   -2.2223   -2.0127 O.2       1 <0>        -0.4954
     18 N1         -7.4287   -2.9011   -0.4769 N.am      1 <0>        -0.6483
     19 C13        -7.7119   -3.1311    0.8496 C.2       1 <0>         0.3681
     20 N2         -8.8255   -3.5923    1.3814 N.2       1 <0>        -0.4605
     21 C14        -8.9196   -3.7546    2.7297 C.ar      1 <0>         0.0775
     22 C15        -7.8664   -4.3470    3.4393 C.ar      1 <0>        -0.1552
     23 C16        -7.9605   -4.5096    4.7895 C.ar      1 <0>        -0.0680
     24 C17        -9.1106   -4.0838    5.4680 C.ar      1 <0>        -0.1279
     25 C18       -10.1638   -3.4909    4.7583 C.ar      1 <0>        -0.0776
     26 C19       -10.0673   -3.3241    3.4087 C.ar      1 <0>        -0.1101
     27 C20        -9.2124   -4.2594    6.9232 C.2       1 <0>         0.5193
     28 O5         -8.2929   -4.7775    7.5429 O.co2     1 <0>        -0.6859
     29 O6        -10.2168   -3.8876    7.5157 O.co2     1 <0>        -0.6897
     30 S1         -6.2001   -2.6597    1.6743 S.3       1 <0>        -0.0162
     31 H2          1.8172    0.0395    0.1546 H         1 <0>         0.0740
     32 H3          0.3957    0.4379   -0.8399 H         1 <0>         0.0607
     33 H4          0.3178    0.6034    0.9307 H         1 <0>         0.0494
     34 H5         -0.0845   -0.8583    2.4602 H         1 <0>         0.1358
     35 H6         -1.2976   -0.4961    4.5661 H         1 <0>         0.1256
     36 H7         -3.7481   -0.6908    4.6398 H         1 <0>         0.1291
     37 H8         -5.0081   -1.2484    2.6067 H         1 <0>         0.1408
     38 H9         -3.5418   -1.5571   -0.8266 H         1 <0>         0.1635
     39 H10        -8.1020   -3.0855   -1.1504 H         1 <0>         0.4165
     40 H11        -6.9802   -4.6750    2.9164 H         1 <0>         0.1243
     41 H12        -7.1490   -4.9667    5.3362 H         1 <0>         0.1315
     42 H13       -11.0501   -3.1628    5.2810 H         1 <0>         0.1319
     43 H14       -10.8771   -2.8635    2.8623 H         1 <0>         0.1210
@<TRIPOS>BOND
     1    1    2 1
     2    1   31 1
     3    1   32 1
     4    1   33 1
     5    2    3 1
     6    2    4 1
     7    2    7 1
     8    4    5 2
     9    4    6 1
    10    7    8 1
    11    8   13 ar
    12    8    9 ar
    13    9   10 ar
    14    9   34 1
    15   10   11 ar
    16   10   35 1
    17   11   12 ar
    18   11   36 1
    19   12   13 ar
    20   12   37 1
    21   13   14 1
    22   14   15 2
    23   14   38 1
    24   15   30 1
    25   15   16 1
    26   16   17 2
    27   16   18 am
    28   18   19 1
    29   18   39 1
    30   19   20 2
    31   19   30 1
    32   20   21 1
    33   21   26 ar
    34   21   22 ar
    35   22   23 ar
    36   22   40 1
    37   23   24 ar
    38   23   41 1
    39   24   25 ar
    40   24   27 1
    41   25   26 ar
    42   25   42 1
    43   26   43 1
    44   27   28 2
    45   27   29 1
@<TRIPOS>MOLECULE
ZINC34857553
   31    32     0     0     0
SMALL
USER_CHARGES

@<TRIPOS>ATOM
      1 C1         -0.0184    1.5028    0.0103 C.3       1 <0>        -0.1547
      2 C2          0.0021   -0.0041    0.0020 C.ar      1 <0>         0.0146
      3 C3          0.0057   -0.6861   -1.2023 C.ar      1 <0>        -0.1703
      4 C4          0.0239   -2.0649   -1.2176 C.ar      1 <0>        -0.0419
      5 C5          0.0392   -2.7734   -0.0133 C.ar      1 <0>        -0.1702
      6 C6          0.0359   -2.0783    1.1985 C.ar      1 <0>         0.0098
      7 C7          0.0229   -0.6989    1.1983 C.ar      1 <0>        -0.6401
      8 S1          0.0254    0.1802    2.7254 S.o2      1 <0>         2.6177
      9 O1         -1.0142    1.1452    2.6401 O.2       1 <0>        -1.0306
     10 O2          0.0755   -0.7965    3.7562 O.2       1 <0>        -1.0254
     11 N1          1.4486    1.0234    2.8026 N.2       1 <0>        -1.0589
     12 C8          1.7291    1.8208    3.9161 C.ar      1 <0>         0.3072
     13 C9          0.8177    1.9024    4.9608 C.ar      1 <0>        -0.2536
     14 C10         1.0976    2.6906    6.0599 C.ar      1 <0>        -0.0276
     15 C11         2.2846    3.3989    6.1213 C.ar      1 <0>        -0.1917
     16 C12         3.1948    3.3205    5.0823 C.ar      1 <0>        -0.0376
     17 C13         2.9230    2.5290    3.9824 C.ar      1 <0>        -0.0933
     18 Cl1         4.0687    2.4247    2.6823 Cl        1 <0>        -0.0807
     19 Br1         2.6634    4.4768    7.6282 Br        1 <0>        -0.0972
     20 C14         0.0582   -4.2487   -0.0214 C.2       1 <0>         0.5260
     21 O3          0.0606   -4.8543   -1.0838 O.co2     1 <0>        -0.6967
     22 O4          0.0716   -4.8658    1.0343 O.co2     1 <0>        -0.6856
     23 H1          1.0042    1.8801    0.0026 H         1 <0>         0.0831
     24 H2         -0.5455    1.8639   -0.8728 H         1 <0>         0.0602
     25 H3         -0.5286    1.8543    0.9071 H         1 <0>         0.1032
     26 H4         -0.0062   -0.1372   -2.1323 H         1 <0>         0.1164
     27 H5          0.0259   -2.5959   -2.1581 H         1 <0>         0.1262
     28 H6          0.0477   -2.6194    2.1331 H         1 <0>         0.1411
     29 H7         -0.1092    1.3502    4.9137 H         1 <0>         0.1136
     30 H8          0.3888    2.7544    6.8723 H         1 <0>         0.1154
     31 H9          4.1202    3.8751    5.1327 H         1 <0>         0.1214
@<TRIPOS>BOND
     1    1    2 1
     2    1   23 1
     3    1   24 1
     4    1   25 1
     5    2    7 ar
     6    2    3 ar
     7    3    4 ar
     8    3   26 1
     9    4    5 ar
    10    4   27 1
    11    5    6 ar
    12    5   20 1
    13    6    7 ar
    14    6   28 1
    15    7    8 1
    16    8    9 2
    17    8   10 2
    18    8   11 1
    19   11   12 1
    20   12   17 ar
    21   12   13 ar
    22   13   14 ar
    23   13   29 1
    24   14   15 ar
    25   14   30 1
    26   15   16 ar
    27   15   19 1
    28   16   17 ar
    29   16   31 1
    30   17   18 1
    31   20   21 2
    32   20   22 1
@<TRIPOS>MOLECULE
ZINC13193609
   45    48     0     0     0
SMALL
USER_CHARGES

@<TRIPOS>ATOM
      1 C1          1.6518   -0.6285    2.8895 C.ar      1 <0>        -0.1334
      2 C2          2.9223   -0.1036    2.7243 C.ar      1 <0>        -0.0976
      3 C3          3.6522   -0.3871    1.5844 C.ar      1 <0>        -0.1333
      4 C4          3.1171   -1.1972    0.6019 C.ar      1 <0>         0.0021
      5 C5          1.8352   -1.7306    0.7630 C.ar      1 <0>        -0.1239
      6 C6          1.1048   -1.4390    1.9176 C.ar      1 <0>        -0.0502
      7 C7          1.2551   -2.5983   -0.2833 C.2       1 <0>         0.5006
      8 O1          1.8631   -2.7916   -1.3194 O.2       1 <0>        -0.4501
      9 C8         -0.0525   -3.2260   -0.0729 C.2       1 <0>        -0.5080
     10 C9         -0.2999   -4.5500    0.0658 C.2       1 <0>         0.2772
     11 C10        -1.7502   -4.7550    0.2598 C.2       1 <0>         0.5017
     12 O2         -2.2874   -5.8340    0.4142 O.2       1 <0>        -0.4924
     13 N1         -2.3882   -3.5706    0.2407 N.am      1 <0>        -0.5524
     14 C11        -1.3838   -2.5200    0.0378 C.3       1 <0>         0.2647
     15 H1         -1.3763   -1.8368    0.8870 H         1 <0>         0.0799
     16 C12        -1.6771   -1.7651   -1.2331 C.ar      1 <0>        -0.1069
     17 C13        -2.4102   -2.3653   -2.2397 C.ar      1 <0>        -0.0377
     18 C14        -2.6804   -1.6741   -3.4053 C.ar      1 <0>        -0.1562
     19 C15        -2.2164   -0.3792   -3.5666 C.ar      1 <0>         0.1126
     20 C16        -1.4824    0.2227   -2.5595 C.ar      1 <0>        -0.1920
     21 C17        -1.2172   -0.4686   -1.3897 C.ar      1 <0>         0.1306
     22 F1         -0.5056    0.1197   -0.4035 F         1 <0>        -0.1281
     23 F2         -2.4800    0.2960   -4.7067 F         1 <0>        -0.1405
     24 C18        -3.7640   -3.3750    0.3928 C.ar      1 <0>         0.1597
     25 C19        -4.2928   -2.0897    0.3458 C.ar      1 <0>        -0.1652
     26 C20        -5.6524   -1.8903    0.4951 C.ar      1 <0>        -0.1154
     27 C21        -6.4950   -2.9652    0.6924 C.ar      1 <0>        -0.1160
     28 C22        -5.9744   -4.2609    0.7414 C.ar      1 <0>        -0.1097
     29 C23        -4.6016   -4.4625    0.5848 C.ar      1 <0>        -0.1192
     30 C24        -6.8727   -5.4124    0.9522 C.2       1 <0>         0.5218
     31 O3         -8.0752   -5.2336    1.0844 O.co2     1 <0>        -0.6966
     32 O4         -6.4147   -6.5455    0.9947 O.co2     1 <0>        -0.6798
     33 O5          0.6325   -5.5295    0.0314 O.3       1 <0>        -0.6462
     34 Cl1         4.0338   -1.5514   -0.8291 Cl        1 <0>        -0.0489
     35 H2          1.0894   -0.4061    3.7843 H         1 <0>         0.1282
     36 H3          3.3452    0.5307    3.4893 H         1 <0>         0.1264
     37 H4          4.6425    0.0261    1.4619 H         1 <0>         0.1287
     38 H5          0.1137   -1.8477    2.0486 H         1 <0>         0.1410
     39 H6         -2.7718   -3.3753   -2.1151 H         1 <0>         0.1398
     40 H7         -3.2532   -2.1440   -4.1911 H         1 <0>         0.1387
     41 H8         -1.1202    1.2325   -2.6843 H         1 <0>         0.1418
     42 H9         -3.6387   -1.2441    0.1923 H         1 <0>         0.1115
     43 H10        -6.0567   -0.8896    0.4575 H         1 <0>         0.1127
     44 H11        -7.5566   -2.8049    0.8093 H         1 <0>         0.1216
     45 H12        -4.1934   -5.4619    0.6175 H         1 <0>         0.1583
@<TRIPOS>BOND
     1    1    6 ar
     2    1    2 ar
     3    1   35 1
     4    2    3 ar
     5    2   36 1
     6    3    4 ar
     7    3   37 1
     8    4    5 ar
     9    4   34 1
    10    5    6 ar
    11    5    7 1
    12    6   38 1
    13    7    8 2
    14    7    9 1
    15    9   14 1
    16    9   10 2
    17   10   11 1
    18   10   33 1
    19   11   12 2
    20   11   13 am
    21   13   14 1
    22   13   24 1
    23   14   15 1
    24   14   16 1
    25   16   21 ar
    26   16   17 ar
    27   17   18 ar
    28   17   39 1
    29   18   19 ar
    30   18   40 1
    31   19   20 ar
    32   19   23 1
    33   20   21 ar
    34   20   41 1
    35   21   22 1
    36   24   29 ar
    37   24   25 ar
    38   25   26 ar
    39   25   42 1
    40   26   27 ar
    41   26   43 1
    42   27   28 ar
    43   27   44 1
    44   28   29 ar
    45   28   30 1
    46   29   45 1
    47   30   31 2
    48   30   32 1
@<TRIPOS>MOLECULE
ZINC13213938
   51    54     0     0     0
SMALL
USER_CHARGES

@<TRIPOS>ATOM
      1 C1          0.7257    2.0293    0.6914 C.3       1 <0>        -0.1104
      2 C2          0.6050    0.5563    0.3968 C.ar      1 <0>        -0.0912
      3 C3          0.6410    0.1076   -0.9104 C.ar      1 <0>        -0.1282
      4 C4          0.5303   -1.2434   -1.1805 C.ar      1 <0>        -0.1206
      5 C5          0.3841   -2.1460   -0.1435 C.ar      1 <0>        -0.0883
      6 C6          0.3491   -1.6975    1.1633 C.ar      1 <0>        -0.0604
      7 C7          0.4641   -0.3465    1.4338 C.ar      1 <0>        -0.0858
      8 C8          0.1892   -2.6813    2.2936 C.3       1 <0>         0.2603
      9 H1         -0.4052   -3.5344    1.9663 H         1 <0>         0.0762
     10 C9          1.5444   -3.1459    2.7736 C.2       1 <0>        -0.5039
     11 C10         1.6437   -2.7827    4.0740 C.2       1 <0>         0.2731
     12 C11         0.4029   -2.0916    4.4810 C.2       1 <0>         0.5007
     13 O1          0.1854   -1.6445    5.5898 O.2       1 <0>        -0.4967
     14 N1         -0.4519   -2.0305    3.4422 N.am      1 <0>        -0.5515
     15 C12        -1.7235   -1.4498    3.4545 C.ar      1 <0>         0.1641
     16 C13        -2.5047   -1.4626    2.3042 C.ar      1 <0>        -0.1619
     17 C14        -3.7629   -0.8903    2.3107 C.ar      1 <0>        -0.1168
     18 C15        -4.2529   -0.3018    3.4586 C.ar      1 <0>        -0.1180
     19 C16        -3.4764   -0.2833    4.6201 C.ar      1 <0>        -0.1113
     20 C17        -2.2078   -0.8665    4.6149 C.ar      1 <0>        -0.1211
     21 C18        -3.9974    0.3453    5.8492 C.2       1 <0>         0.5221
     22 O2         -5.1107    0.8514    5.8525 O.co2     1 <0>        -0.6977
     23 O3         -3.3160    0.3602    6.8645 O.co2     1 <0>        -0.6806
     24 O4          2.7096   -3.0160    4.8739 O.3       1 <0>        -0.6523
     25 C19         2.5562   -3.8540    1.9838 C.2       1 <0>         0.5067
     26 O5          3.6083   -3.3066    1.7114 O.2       1 <0>        -0.4614
     27 C20         2.2986   -5.2322    1.5186 C.ar      1 <0>        -0.1668
     28 C21         1.1237   -5.8908    1.8904 C.ar      1 <0>        -0.0371
     29 C22         0.8897   -7.1766    1.4529 C.ar      1 <0>        -0.1478
     30 C23         1.8152   -7.8180    0.6465 C.ar      1 <0>        -0.0798
     31 C24         2.9806   -7.1752    0.2731 C.ar      1 <0>        -0.1763
     32 C25         3.2272   -5.8827    0.6988 C.ar      1 <0>         0.1375
     33 F1          4.3636   -5.2525    0.3291 F         1 <0>        -0.1233
     34 C26         0.2625   -3.6189   -0.4382 C.3       1 <0>        -0.1144
     35 H2          1.7765    2.2895    0.8186 H         1 <0>         0.0650
     36 H3          0.3076    2.6010   -0.1372 H         1 <0>         0.0598
     37 H4          0.1803    2.2629    1.6057 H         1 <0>         0.0661
     38 H5          0.7553    0.8127   -1.7204 H         1 <0>         0.1122
     39 H6          0.5577   -1.5939   -2.2017 H         1 <0>         0.1135
     40 H7          0.4405    0.0036    2.4552 H         1 <0>         0.1168
     41 H8         -2.1268   -1.9210    1.4023 H         1 <0>         0.1138
     42 H9         -4.3646   -0.9036    1.4139 H         1 <0>         0.1113
     43 H10        -5.2362    0.1448    3.4591 H         1 <0>         0.1203
     44 H11        -1.6044   -0.8595    5.5106 H         1 <0>         0.1569
     45 H12         0.4005   -5.3934    2.5197 H         1 <0>         0.1438
     46 H13        -0.0184   -7.6859    1.7401 H         1 <0>         0.1297
     47 H14         1.6256   -8.8259    0.3079 H         1 <0>         0.1278
     48 H15         3.6979   -7.6817   -0.3556 H         1 <0>         0.1313
     49 H16         1.2572   -4.0592   -0.5061 H         1 <0>         0.0656
     50 H17        -0.2960   -4.1046    0.3621 H         1 <0>         0.0692
     51 H18        -0.2619   -3.7583   -1.3835 H         1 <0>         0.0598
@<TRIPOS>BOND
     1    1    2 1
     2    1   35 1
     3    1   36 1
     4    1   37 1
     5    2    7 ar
     6    2    3 ar
     7    3    4 ar
     8    3   38 1
     9    4    5 ar
    10    4   39 1
    11    5    6 ar
    12    5   34 1
    13    6    7 ar
    14    6    8 1
    15    7   40 1
    16    8    9 1
    17    8   14 1
    18    8   10 1
    19   10   11 2
    20   10   25 1
    21   11   12 1
    22   11   24 1
    23   12   13 2
    24   12   14 am
    25   14   15 1
    26   15   20 ar
    27   15   16 ar
    28   16   17 ar
    29   16   41 1
    30   17   18 ar
    31   17   42 1
    32   18   19 ar
    33   18   43 1
    34   19   20 ar
    35   19   21 1
    36   20   44 1
    37   21   22 2
    38   21   23 1
    39   25   26 2
    40   25   27 1
    41   27   32 ar
    42   27   28 ar
    43   28   29 ar
    44   28   45 1
    45   29   30 ar
    46   29   46 1
    47   30   31 ar
    48   30   47 1
    49   31   32 ar
    50   31   48 1
    51   32   33 1
    52   34   49 1
    53   34   50 1
    54   34   51 1
@<TRIPOS>MOLECULE
ZINC13218049
   50    54     0     0     0
SMALL
USER_CHARGES

@<TRIPOS>ATOM
      1 C1          0.5077    0.9144    1.0575 C.3       1 <0>        -0.1089
      2 C2          0.2914   -0.5470    0.7599 C.ar      1 <0>        -0.0891
      3 C3         -0.9816   -1.0848    0.8379 C.ar      1 <0>        -0.1254
      4 C4         -1.1867   -2.4213    0.5669 C.ar      1 <0>        -0.0752
      5 C5         -0.1063   -3.2325    0.2125 C.ar      1 <0>        -0.1107
      6 C6          1.1751   -2.6833    0.1352 C.ar      1 <0>        -0.0557
      7 C7          1.3653   -1.3437    0.4043 C.ar      1 <0>        -0.1253
      8 C8          2.3469   -3.5509   -0.2460 C.3       1 <0>        -0.1189
      9 C9         -0.3186   -4.6665   -0.0791 C.2       1 <0>         0.4727
     10 O1         -0.5139   -5.4499    0.8311 O.2       1 <0>        -0.4817
     11 C10        -0.2936   -5.1441   -1.4644 C.2       1 <0>        -0.4710
     12 C11        -0.3677   -6.4320   -1.8763 C.2       1 <0>         0.2938
     13 C12        -0.3079   -6.4738   -3.3519 C.2       1 <0>         0.5095
     14 O2         -0.3517   -7.4856   -4.0230 O.2       1 <0>        -0.4819
     15 N1         -0.1984   -5.2260   -3.8429 N.am      1 <0>        -0.5046
     16 C13        -0.1870   -4.2942   -2.7091 C.3       1 <0>         0.3015
     17 H1          0.7461   -3.7308   -2.6993 H         1 <0>         0.0979
     18 C14        -1.3606   -3.3529   -2.7959 C.2       1 <0>        -0.1018
     19 C15        -1.3993   -2.0148   -2.5831 C.2       1 <0>        -0.1482
     20 C16        -2.6023   -1.3484   -2.7221 C.2       1 <0>        -0.1409
     21 C17        -3.7078   -2.0527   -3.0673 C.2       1 <0>        -0.1991
     22 S1         -3.0593   -3.7096   -3.2136 S.3       1 <0>         0.0386
     23 C18        -0.1165   -4.8822   -5.1787 C.2       1 <0>         0.3853
     24 N2         -0.0023   -3.6882   -5.7184 N.2       1 <0>        -0.5350
     25 C19         0.0679   -3.4953   -7.0434 C.ar      1 <0>         0.1022
     26 C20         0.1909   -2.2658   -7.7395 C.ar      1 <0>        -0.0896
     27 C21         0.2493   -2.2310   -9.0925 C.ar      1 <0>        -0.0729
     28 C22         0.1913   -3.4056   -9.8589 C.ar      1 <0>        -0.1200
     29 C23         0.0703   -4.6378   -9.2040 C.ar      1 <0>        -0.0291
     30 C24         0.0114   -4.6672   -7.8388 C.ar      1 <0>        -0.1720
     31 S2         -0.1307   -5.9472   -6.6143 S.3       1 <0>         0.0313
     32 C25         0.2561   -3.3433  -11.3272 C.2       1 <0>         0.5267
     33 O3          0.3614   -2.2618  -11.8897 O.co2     1 <0>        -0.6873
     34 O4          0.2047   -4.3731  -11.9861 O.co2     1 <0>        -0.6862
     35 O5         -0.4783   -7.5093   -1.0655 O.3       1 <0>        -0.5932
     36 H2          0.3993    1.4921    0.1395 H         1 <0>         0.0665
     37 H3         -0.2295    1.2497    1.7870 H         1 <0>         0.0607
     38 H4          1.5099    1.0585    1.4612 H         1 <0>         0.0608
     39 H5         -1.8161   -0.4564    1.1121 H         1 <0>         0.1159
     40 H6         -2.1804   -2.8398    0.6289 H         1 <0>         0.1178
     41 H7          2.3553   -0.9168    0.3412 H         1 <0>         0.1179
     42 H8          2.5135   -3.4846   -1.3211 H         1 <0>         0.0737
     43 H9          3.2379   -3.2102    0.2815 H         1 <0>         0.0626
     44 H10         2.1368   -4.5852    0.0261 H         1 <0>         0.0727
     45 H11        -0.5036   -1.4774   -2.3085 H         1 <0>         0.1261
     46 H12        -2.6606   -0.2826   -2.5579 H         1 <0>         0.1233
     47 H13        -4.7180   -1.7019   -3.2186 H         1 <0>         0.1758
     48 H14         0.2384   -1.3422   -7.1818 H         1 <0>         0.1219
     49 H15         0.3423   -1.2783   -9.5926 H         1 <0>         0.1341
     50 H16         0.0241   -5.5552   -9.7719 H         1 <0>         0.1343
@<TRIPOS>BOND
     1    1    2 1
     2    1   36 1
     3    1   37 1
     4    1   38 1
     5    2    7 ar
     6    2    3 ar
     7    3    4 ar
     8    3   39 1
     9    4    5 ar
    10    4   40 1
    11    5    6 ar
    12    5    9 1
    13    6    7 ar
    14    6    8 1
    15    7   41 1
    16    8   42 1
    17    8   43 1
    18    8   44 1
    19    9   10 2
    20    9   11 1
    21   11   16 1
    22   11   12 2
    23   12   13 1
    24   12   35 1
    25   13   14 2
    26   13   15 am
    27   15   16 1
    28   15   23 1
    29   16   17 1
    30   16   18 1
    31   18   22 1
    32   18   19 2
    33   19   20 1
    34   19   45 1
    35   20   21 2
    36   20   46 1
    37   21   22 1
    38   21   47 1
    39   23   31 1
    40   23   24 2
    41   24   25 1
    42   25   30 ar
    43   25   26 ar
    44   26   27 ar
    45   26   48 1
    46   27   28 ar
    47   27   49 1
    48   28   29 ar
    49   28   32 1
    50   29   30 ar
    51   29   50 1
    52   30   31 1
    53   32   33 2
    54   32   34 1
@<TRIPOS>MOLECULE
ZINC16929025
   50    52     0     0     0
SMALL
USER_CHARGES

@<TRIPOS>ATOM
      1 C1         -0.0469    1.0868    0.0607 C.3       1 <0>        -0.1589
      2 C2         -0.1133   -0.4418    0.0587 C.3       1 <0>         0.0118
      3 H1         -1.1556   -0.7602    0.0727 H         1 <0>         0.0681
      4 C3          0.5920   -0.9768    1.2783 C.2       1 <0>         0.5069
      5 O1          0.1504   -0.7415    2.3901 O.co2     1 <0>        -0.6866
      6 O2          1.6040   -1.6451    1.1531 O.co2     1 <0>        -0.6717
      7 O3          0.5226   -0.9445   -1.1182 O.3       1 <0>        -0.2779
      8 C4         -0.2179   -0.9679   -2.2576 C.ar      1 <0>         0.1385
      9 C5         -1.4885   -0.4062   -2.2710 C.ar      1 <0>        -0.1928
     10 C6         -2.2482   -0.4260   -3.4265 C.ar      1 <0>        -0.0763
     11 C7         -1.7499   -1.0034   -4.5755 C.ar      1 <0>        -0.1382
     12 C8         -0.4712   -1.5717   -4.5734 C.ar      1 <0>        -0.0561
     13 C9          0.2966   -1.5458   -3.4045 C.ar      1 <0>        -0.1253
     14 C10         0.0646   -2.1889   -5.7953 C.2       1 <0>         0.0637
     15 C11        -0.7420   -2.3789   -6.8688 C.2       1 <0>        -0.2204
     16 C12        -0.3998   -2.8490   -8.2269 C.2       1 <0>         0.5615
     17 O4          0.7429   -3.1348   -8.5324 O.2       1 <0>        -0.4973
     18 N1         -1.3926   -2.9452   -9.0950 N.am      1 <0>        -0.5361
     19 C13        -2.6800   -2.6171   -8.7293 C.2       1 <0>         0.3554
     20 N2         -3.7713   -2.6554   -9.4599 N.2       1 <0>        -0.4420
     21 C14        -4.9723   -2.2877   -8.9160 C.ar      1 <0>         0.0657
     22 C15        -5.3336   -2.7414   -7.6440 C.ar      1 <0>        -0.1475
     23 C16        -6.5447   -2.3721   -7.0939 C.ar      1 <0>        -0.1211
     24 C17        -7.4078   -1.5528   -7.7941 C.ar      1 <0>        -0.0805
     25 C18        -7.0601   -1.0909   -9.0668 C.ar      1 <0>        -0.1246
     26 C19        -5.8356   -1.4553   -9.6266 C.ar      1 <0>        -0.0548
     27 C20        -7.9837   -0.2154   -9.8138 C.2       1 <0>         0.5228
     28 O5         -9.0548    0.1069   -9.3196 O.co2     1 <0>        -0.6855
     29 O6         -7.6779    0.1879  -10.9271 O.co2     1 <0>        -0.6856
     30 S1         -2.5059   -2.1355   -7.0189 S.3       1 <0>        -0.0093
     31 C21        -1.1210   -3.4047  -10.4593 C.3       1 <0>         0.1319
     32 C22        -1.2544   -4.9046  -10.5201 C.2       1 <0>        -0.1761
     33 C23        -2.0652   -5.4554  -11.3892 C.2       1 <0>        -0.1595
     34 H2          0.9954    1.4053    0.0467 H         1 <0>         0.0597
     35 H3         -0.5570    1.4738   -0.8214 H         1 <0>         0.0502
     36 H4         -0.5320    1.4703    0.9584 H         1 <0>         0.0734
     37 H5         -1.8850    0.0477   -1.3748 H         1 <0>         0.1350
     38 H6         -3.2353    0.0121   -3.4290 H         1 <0>         0.1294
     39 H7         -2.3461   -1.0173   -5.4759 H         1 <0>         0.1324
     40 H8          1.2858   -1.9791   -3.3961 H         1 <0>         0.1380
     41 H9          1.1006   -2.4911   -5.8381 H         1 <0>         0.1575
     42 H10        -4.6638   -3.3827   -7.0905 H         1 <0>         0.1219
     43 H11        -6.8186   -2.7260   -6.1109 H         1 <0>         0.1212
     44 H12        -8.3539   -1.2686   -7.3577 H         1 <0>         0.1301
     45 H13        -5.5595   -1.0978  -10.6076 H         1 <0>         0.1331
     46 H14        -1.8347   -2.9484  -11.1452 H         1 <0>         0.1028
     47 H15        -0.1088   -3.1181  -10.7445 H         1 <0>         0.1002
     48 H16        -0.6815   -5.5254   -9.8471 H         1 <0>         0.1097
     49 H17        -2.6380   -4.8346  -12.0621 H         1 <0>         0.1034
     50 H18        -2.1607   -6.5303  -11.4327 H         1 <0>         0.0996
@<TRIPOS>BOND
     1    1    2 1
     2    1   34 1
     3    1   35 1
     4    1   36 1
     5    2    3 1
     6    2    4 1
     7    2    7 1
     8    4    5 2
     9    4    6 1
    10    7    8 1
    11    8   13 ar
    12    8    9 ar
    13    9   10 ar
    14    9   37 1
    15   10   11 ar
    16   10   38 1
    17   11   12 ar
    18   11   39 1
    19   12   13 ar
    20   12   14 1
    21   13   40 1
    22   14   15 2
    23   14   41 1
    24   15   30 1
    25   15   16 1
    26   16   17 2
    27   16   18 am
    28   18   19 1
    29   18   31 1
    30   19   20 2
    31   19   30 1
    32   20   21 1
    33   21   26 ar
    34   21   22 ar
    35   22   23 ar
    36   22   42 1
    37   23   24 ar
    38   23   43 1
    39   24   25 ar
    40   24   44 1
    41   25   26 ar
    42   25   27 1
    43   26   45 1
    44   27   28 2
    45   27   29 1
    46   31   32 1
    47   31   46 1
    48   31   47 1
    49   32   33 2
    50   32   48 1
    51   33   49 1
    52   33   50 1
@<TRIPOS>MOLECULE
ZINC19939960
   47    49     0     0     0
SMALL
USER_CHARGES
4-[(5E)-5-[(4-allyloxy-3-chloro-5-methoxy-phenyl)methylene]-2,4,6-trioxo-hexahydropyrimidin-1-yl]benzoic acid
@<TRIPOS>ATOM
      1 C1         -2.3793    3.2542    2.1629 C.3       1 <0>         0.0190
      2 O1         -3.3579    3.1962    1.1232 O.3       1 <0>        -0.3066
      3 C2         -2.9907    2.5893   -0.0371 C.ar      1 <0>         0.1110
      4 C3         -1.7238    2.0590   -0.1664 C.ar      1 <0>        -0.0837
      5 C4         -1.3461    1.4390   -1.3673 C.ar      1 <0>        -0.0153
      6 C5         -2.2642    1.3517   -2.4250 C.ar      1 <0>        -0.1126
      7 C6         -3.5280    1.8788   -2.2831 C.ar      1 <0>        -0.0333
      8 C7         -3.8979    2.4980   -1.0935 C.ar      1 <0>         0.0774
      9 O2         -5.1455    3.0157   -0.9601 O.3       1 <0>        -0.3083
     10 C8         -6.1565    2.1473   -0.4444 C.3       1 <0>         0.0886
     11 C9         -7.4655    2.8901   -0.3676 C.2       1 <0>        -0.1421
     12 C10        -8.5677    2.3200   -0.7874 C.2       1 <0>        -0.1898
     13 Cl1        -4.6633    1.7700   -3.5918 Cl        1 <0>        -0.0638
     14 C11        -0.0024    0.8804   -1.5138 C.2       1 <0>         0.0095
     15 C12         1.0962    1.6020   -1.0870 C.2       1 <0>        -0.2362
     16 C13         0.9807    3.0190   -0.6889 C.2       1 <0>         0.5251
     17 O3         -0.0909    3.5933   -0.7263 O.3       1 <0>        -0.5538
     18 N1          2.0954    3.6576   -0.2769 N.2       1 <0>        -0.7005
     19 C14         3.2836    3.0388   -0.2372 C.2       1 <0>         0.6625
     20 O4          4.2497    3.6732    0.1381 O.2       1 <0>        -0.5649
     21 N2          3.4638    1.7580   -0.5886 N.am      1 <0>        -0.5410
     22 C15         2.4384    0.9921   -1.0148 C.2       1 <0>         0.5602
     23 O5          2.6149   -0.1692   -1.3306 O.2       1 <0>        -0.5165
     24 C16         4.7436    1.2034   -0.5122 C.ar      1 <0>         0.1425
     25 C17         5.5559    1.1750   -1.6410 C.ar      1 <0>        -0.1203
     26 C18         6.8200    0.6343   -1.5680 C.ar      1 <0>        -0.0703
     27 C19         7.2824    0.1031   -0.3606 C.ar      1 <0>        -0.1173
     28 C20         6.4610    0.1283    0.7702 C.ar      1 <0>        -0.0795
     29 C21         5.2003    0.6758    0.6910 C.ar      1 <0>        -0.1177
     30 C22         8.6336   -0.4830   -0.2800 C.2       1 <0>         0.4953
     31 O6          9.0339   -0.9447    0.7702 O.co2     1 <0>        -0.6371
     32 O7          9.4240   -0.5064   -1.3710 O.co2     1 <0>        -0.7606
     33 H1         -2.8044    3.7671    3.0383 H         1 <0>         0.0987
     34 H2         -1.4978    3.8071    1.8062 H         1 <0>         0.0726
     35 H3         -2.0825    2.2331    2.4445 H         1 <0>         0.0520
     36 H4         -1.0230    2.1248    0.6527 H         1 <0>         0.1394
     37 H5         -1.9794    0.8718   -3.3497 H         1 <0>         0.1389
     38 H6         -6.2668    1.2777   -1.1090 H         1 <0>         0.0574
     39 H7         -5.8689    1.8062    0.5611 H         1 <0>         0.0641
     40 H8         -7.4955    3.9110    0.0410 H         1 <0>         0.1200
     41 H9         -9.5232    2.8622   -0.7314 H         1 <0>         0.1048
     42 H10        -8.5377    1.2991   -1.1960 H         1 <0>         0.0987
     43 H11         0.1338   -0.1141   -1.9637 H         1 <0>         0.1469
     44 H12         5.1962    1.5813   -2.5747 H         1 <0>         0.1133
     45 H13         7.4520    0.6169   -2.4437 H         1 <0>         0.1319
     46 H14         6.8151   -0.2809    1.7049 H         1 <0>         0.1280
     47 H15         4.5650    0.6953    1.5642 H         1 <0>         0.1133
@<TRIPOS>BOND
     1    1    2 1
     2    1   33 1
     3    1   34 1
     4    1   35 1
     5    2    3 1
     6    3    8 ar
     7    3    4 ar
     8    4    5 ar
     9    4   36 1
    10    5    6 ar
    11    5   14 1
    12    6    7 ar
    13    6   37 1
    14    7    8 ar
    15    7   13 1
    16    8    9 1
    17    9   10 1
    18   10   11 1
    19   10   38 1
    20   10   39 1
    21   11   12 2
    22   11   40 1
    23   12   41 1
    24   12   42 1
    25   14   15 2
    26   14   43 1
    27   15   22 1
    28   15   16 1
    29   16   17 1
    30   16   18 2
    31   18   19 1
    32   19   20 2
    33   19   21 am
    34   21   22 am
    35   21   24 1
    36   22   23 2
    37   24   29 ar
    38   24   25 ar
    39   25   26 ar
    40   25   44 1
    41   26   27 ar
    42   26   45 1
    43   27   28 ar
    44   27   30 1
    45   28   29 ar
    46   28   46 1
    47   29   47 1
    48   30   31 2
    49   30   32 1
@<TRIPOS>MOLECULE
ZINC15012644
   48    50     0     0     0
SMALL
USER_CHARGES

@<TRIPOS>ATOM
      1 C1          1.9972    1.1485    1.0736 C.3       1 <0>        -0.1523
      2 C2          1.3056   -0.1873    0.7937 C.3       1 <0>         0.0521
      3 O1          1.5967   -0.6038   -0.5419 O.3       1 <0>        -0.2933
      4 C3          1.0542   -1.7809   -0.9537 C.ar      1 <0>         0.0887
      5 C4          0.2577   -2.5118   -0.0943 C.ar      1 <0>        -0.1341
      6 C5         -0.2991   -3.7233   -0.5218 C.ar      1 <0>        -0.1275
      7 C6         -0.0448   -4.1866   -1.8185 C.ar      1 <0>        -0.0703
      8 C7          0.7510   -3.4504   -2.6685 C.ar      1 <0>        -0.1926
      9 C8          1.2978   -2.2464   -2.2451 C.ar      1 <0>         0.1579
     10 O2          2.0769   -1.5222   -3.0903 O.3       1 <0>        -0.2563
     11 C9          2.3143   -2.0737   -4.3870 C.3       1 <0>         0.0060
     12 H1          2.4124   -3.1564   -4.3089 H         1 <0>         0.0704
     13 C10         1.1414   -1.7331   -5.3086 C.3       1 <0>        -0.1572
     14 C11         3.5841   -1.4938   -4.9548 C.2       1 <0>         0.5064
     15 O3          4.0179   -1.9015   -6.0188 O.co2     1 <0>        -0.6833
     16 O4          4.1775   -0.6170   -4.3502 O.co2     1 <0>        -0.6672
     17 C12        -1.1466   -4.5059    0.3869 C.2       1 <0>         0.0995
     18 C13        -1.9768   -5.4578   -0.1102 C.2       1 <0>        -0.2482
     19 C14        -2.8043   -6.4459    0.6078 C.2       1 <0>         0.5659
     20 O5         -2.8181   -6.5007    1.8236 O.2       1 <0>        -0.4910
     21 N1         -3.5306   -7.2689   -0.1295 N.am      1 <0>        -0.6487
     22 C15        -3.5012   -7.1909   -1.5050 C.2       1 <0>         0.3854
     23 N2         -4.1536   -7.9240   -2.3790 N.2       1 <0>        -0.4761
     24 C16        -3.9940   -7.6952   -3.7190 C.ar      1 <0>         0.1073
     25 C17        -4.0076   -6.3892   -4.2139 C.ar      1 <0>        -0.1371
     26 C18        -3.8457   -6.1654   -5.5653 C.ar      1 <0>        -0.0860
     27 C19        -3.6700   -7.2320   -6.4307 C.ar      1 <0>        -0.0393
     28 C20        -3.6560   -8.5292   -5.9464 C.ar      1 <0>        -0.0948
     29 C21        -3.8110   -8.7663   -4.5965 C.ar      1 <0>        -0.0893
     30 Cl1        -3.4670   -6.9417   -8.1301 Cl        1 <0>        -0.0646
     31 S1         -2.3673   -5.8460   -1.8103 S.3       1 <0>        -0.0055
     32 H2          3.0745    1.0314    0.9562 H         1 <0>         0.0691
     33 H3          1.6346    1.8994    0.3717 H         1 <0>         0.0675
     34 H4          1.7751    1.4661    2.0923 H         1 <0>         0.0746
     35 H5          1.6681   -0.9383    1.4956 H         1 <0>         0.0594
     36 H6          0.2282   -0.0703    0.9111 H         1 <0>         0.0585
     37 H7          0.0650   -2.1501    0.9050 H         1 <0>         0.1398
     38 H8         -0.4721   -5.1207   -2.1519 H         1 <0>         0.1355
     39 H9          0.9465   -3.8086   -3.6684 H         1 <0>         0.1465
     40 H10         1.0432   -0.6503   -5.3866 H         1 <0>         0.0614
     41 H11         1.3224   -2.1538   -6.2977 H         1 <0>         0.0765
     42 H12         0.2230   -2.1525   -4.8979 H         1 <0>         0.0485
     43 H13        -1.1094   -4.3240    1.4509 H         1 <0>         0.1570
     44 H14        -4.0892   -7.9342    0.3020 H         1 <0>         0.4208
     45 H15        -4.1449   -5.5564   -3.5401 H         1 <0>         0.1398
     46 H16        -3.8564   -5.1560   -5.9494 H         1 <0>         0.1404
     47 H17        -3.5192   -9.3569   -6.6266 H         1 <0>         0.1403
     48 H18        -3.7954   -9.7782   -4.2194 H         1 <0>         0.1395
@<TRIPOS>BOND
     1    1    2 1
     2    1   32 1
     3    1   33 1
     4    1   34 1
     5    2    3 1
     6    2   35 1
     7    2   36 1
     8    3    4 1
     9    4    9 ar
    10    4    5 ar
    11    5    6 ar
    12    5   37 1
    13    6    7 ar
    14    6   17 1
    15    7    8 ar
    16    7   38 1
    17    8    9 ar
    18    8   39 1
    19    9   10 1
    20   10   11 1
    21   11   12 1
    22   11   13 1
    23   11   14 1
    24   13   40 1
    25   13   41 1
    26   13   42 1
    27   14   15 2
    28   14   16 1
    29   17   18 2
    30   17   43 1
    31   18   31 1
    32   18   19 1
    33   19   20 2
    34   19   21 am
    35   21   22 1
    36   21   44 1
    37   22   23 2
    38   22   31 1
    39   23   24 1
    40   24   29 ar
    41   24   25 ar
    42   25   26 ar
    43   25   45 1
    44   26   27 ar
    45   26   46 1
    46   27   28 ar
    47   27   30 1
    48   28   29 ar
    49   28   47 1
    50   29   48 1
@<TRIPOS>MOLECULE
ZINC13278102
   41    45     0     0     0
SMALL
USER_CHARGES

@<TRIPOS>ATOM
      1 C1         -0.1613    2.7831    1.3156 C.ar      1 <0>        -0.0726
      2 C2          1.1121    3.2377    1.2263 C.ar      1 <0>        -0.0906
      3 C3          2.1826    2.3603    0.9188 C.ar      1 <0>         0.1025
      4 C4          1.8432    0.9991    0.7138 C.ar      1 <0>        -0.1731
      5 C5          0.5609    0.5354    0.8027 C.ar      1 <0>        -0.0287
      6 C6         -0.4726    1.4306    1.1084 C.ar      1 <0>        -0.1210
      7 C7         -1.8626    0.9599    1.2105 C.2       1 <0>         0.5267
      8 O1         -2.7579    1.7498    1.4780 O.co2     1 <0>        -0.6874
      9 O2         -2.1234   -0.2216    1.0280 O.co2     1 <0>        -0.6863
     10 S1          3.4232    0.2655    0.3629 S.3       1 <0>         0.0264
     11 C8          4.3965    1.7580    0.5057 C.2       1 <0>         0.3880
     12 N1          3.4838    2.6594    0.7965 N.2       1 <0>        -0.5363
     13 N2          5.7596    1.9227    0.3505 N.am      1 <0>        -0.5009
     14 C9          6.4977    3.1835    0.4887 C.3       1 <0>         0.2716
     15 H1          6.1413    3.9084   -0.2432 H         1 <0>         0.0844
     16 C10         7.9490    2.8536    0.2287 C.2       1 <0>        -0.4700
     17 C11         8.0067    1.5233   -0.0309 C.2       1 <0>         0.2941
     18 C12         6.6445    0.9543    0.0521 C.2       1 <0>         0.5069
     19 O3          6.3653   -0.2146   -0.1250 O.2       1 <0>        -0.4863
     20 O4          9.1306    0.8282   -0.3154 O.3       1 <0>        -0.5918
     21 C13         9.0373    3.7572    0.2511 C.2       1 <0>         0.4549
     22 O5         10.1717    3.3443    0.1255 O.2       1 <0>        -0.5039
     23 C14         8.7881    5.2326    0.4309 C.3       1 <0>        -0.1984
     24 C15         9.5961    6.1968   -0.4398 C.3       1 <0>        -0.1623
     25 C16         9.9092    6.0679    1.0523 C.3       1 <0>        -0.1604
     26 C17         6.3313    3.7311    1.8827 C.2       1 <0>        -0.1062
     27 C18         5.9776    5.0528    2.0797 C.2       1 <0>        -0.1228
     28 C19         5.8362    5.5137    3.3465 C.2       1 <0>        -0.1838
     29 S2          6.2078    4.0589    4.3123 S.3       1 <0>         0.0070
     30 C20         6.5209    2.9336    2.9622 C.2       1 <0>        -0.1407
     31 H2         -0.9537    3.4765    1.5561 H         1 <0>         0.1340
     32 H3          1.3149    4.2855    1.3916 H         1 <0>         0.1218
     33 H4          0.3463   -0.5102    0.6387 H         1 <0>         0.1339
     34 H5          7.7616    5.5102    0.6706 H         1 <0>         0.1147
     35 H6         10.3081    5.7641   -1.1427 H         1 <0>         0.0950
     36 H7          9.1013    7.1090   -0.7732 H         1 <0>         0.0907
     37 H8          9.6204    6.8952    1.7005 H         1 <0>         0.0896
     38 H9         10.8271    5.5503    1.3310 H         1 <0>         0.0968
     39 H10         5.8166    5.7085    1.2367 H         1 <0>         0.1310
     40 H11         5.5686    6.5040    3.6840 H         1 <0>         0.1797
     41 H12         6.7921    1.8887    2.9967 H         1 <0>         0.1737
@<TRIPOS>BOND
     1    1    6 ar
     2    1    2 ar
     3    1   31 1
     4    2    3 ar
     5    2   32 1
     6    3   12 1
     7    3    4 ar
     8    4    5 ar
     9    4   10 1
    10    5    6 ar
    11    5   33 1
    12    6    7 1
    13    7    8 2
    14    7    9 1
    15   10   11 1
    16   11   12 2
    17   11   13 1
    18   13   18 am
    19   13   14 1
    20   14   15 1
    21   14   16 1
    22   14   26 1
    23   16   17 2
    24   16   21 1
    25   17   18 1
    26   17   20 1
    27   18   19 2
    28   21   22 2
    29   21   23 1
    30   23   25 1
    31   23   24 1
    32   23   34 1
    33   24   25 1
    34   24   35 1
    35   24   36 1
    36   25   37 1
    37   25   38 1
    38   26   30 2
    39   26   27 1
    40   27   28 2
    41   27   39 1
    42   28   29 1
    43   28   40 1
    44   29   30 1
    45   30   41 1
@<TRIPOS>MOLECULE
ZINC13449106
   54    56     0     0     0
SMALL
USER_CHARGES

@<TRIPOS>ATOM
      1 C1         -0.0184    1.5028    0.0103 C.3       1 <0>        -0.0837
      2 C2          0.0021   -0.0041    0.0020 C.2       1 <0>         0.0051
      3 C3          0.0080   -0.7767   -1.0970 C.2       1 <0>        -0.1336
      4 C4          0.0289   -2.1683   -0.6259 C.2       1 <0>        -0.2411
      5 C5          0.0337   -2.1013    0.7548 C.2       1 <0>         0.1087
      6 N1          0.0235   -0.8024    1.1117 N.pl3     1 <0>        -0.3987
      7 C6          0.0297   -0.3356    2.4332 C.ar      1 <0>         0.1188
      8 C7          1.1322   -0.5625    3.2459 C.ar      1 <0>        -0.1083
      9 C8          1.1354   -0.1013    4.5478 C.ar      1 <0>        -0.1075
     10 C9          0.0419    0.5859    5.0420 C.ar      1 <0>        -0.1146
     11 C10        -1.0577    0.8134    4.2350 C.ar      1 <0>        -0.1086
     12 C11        -1.0644    0.3596    2.9305 C.ar      1 <0>        -0.1093
     13 C12         0.0535   -3.2772    1.6972 C.3       1 <0>        -0.0920
     14 C13         0.0411   -3.3784   -1.4503 C.2       1 <0>         0.4526
     15 O1          0.0578   -4.4714   -0.9234 O.2       1 <0>        -0.4599
     16 C14         0.0331   -3.2664   -2.9531 C.3       1 <0>        -0.1090
     17 H1          0.6098   -2.3923   -3.2554 H         1 <0>         0.1171
     18 C15        -1.4081   -3.1221   -3.4461 C.3       1 <0>        -0.1347
     19 S1          0.7724   -4.7576   -3.6745 S.3       1 <0>        -0.0268
     20 C16         0.8253   -4.4143   -5.4019 C.ar      1 <0>         0.3129
     21 N2          0.3723   -3.2496   -5.8438 N.ar      1 <0>        -0.6178
     22 C17         0.3985   -2.9610   -7.1389 C.ar      1 <0>         0.4451
     23 O2         -0.0652   -1.7690   -7.5867 O.3       1 <0>        -0.6928
     24 C18         0.9102   -3.9014   -8.0325 C.ar      1 <0>        -0.2721
     25 C19         1.3727   -5.1039   -7.5320 C.ar      1 <0>         0.1567
     26 N3          1.3220   -5.3247   -6.2270 N.ar      1 <0>        -0.5860
     27 C20         1.9337   -6.1501   -8.4603 C.3       1 <0>        -0.0905
     28 C21         0.9574   -3.6132   -9.5109 C.3       1 <0>        -0.0163
     29 C22         2.2893   -2.9452   -9.8580 C.3       1 <0>        -0.1638
     30 C23         2.3365   -2.6570  -11.3364 C.2       1 <0>         0.4943
     31 O3          1.3923   -2.9580  -12.0467 O.co2     1 <0>        -0.7035
     32 O4          3.3189   -2.1228  -11.8224 O.co2     1 <0>        -0.7225
     33 H2          1.0042    1.8801    0.0026 H         1 <0>         0.0703
     34 H3         -0.5455    1.8639   -0.8728 H         1 <0>         0.0848
     35 H4         -0.5286    1.8543    0.9071 H         1 <0>         0.0609
     36 H5         -0.0008   -0.4413   -2.1235 H         1 <0>         0.1573
     37 H6          1.9864   -1.0994    2.8606 H         1 <0>         0.1306
     38 H7          1.9926   -0.2778    5.1806 H         1 <0>         0.1310
     39 H8          0.0465    0.9452    6.0604 H         1 <0>         0.1276
     40 H9         -1.9105    1.3501    4.6239 H         1 <0>         0.1307
     41 H10        -1.9217    0.5415    2.2993 H         1 <0>         0.1307
     42 H11         1.0859   -3.5465    1.9204 H         1 <0>         0.0776
     43 H12        -0.4605   -3.0113    2.6208 H         1 <0>         0.0612
     44 H13        -0.4504   -4.1243    1.2318 H         1 <0>         0.1012
     45 H14        -1.4139   -3.0411   -4.5330 H         1 <0>         0.1001
     46 H15        -1.9848   -3.9962   -3.1438 H         1 <0>         0.0546
     47 H16        -1.8523   -2.2260   -3.0126 H         1 <0>         0.0568
     48 H17         3.0067   -5.9962   -8.5751 H         1 <0>         0.0648
     49 H18         1.7512   -7.1407   -8.0440 H         1 <0>         0.0590
     50 H19         1.4491   -6.0699   -9.4333 H         1 <0>         0.0735
     51 H20         0.8634   -4.5465  -10.0662 H         1 <0>         0.0487
     52 H21         0.1366   -2.9475   -9.7777 H         1 <0>         0.0630
     53 H22         2.3833   -2.0119   -9.3027 H         1 <0>         0.0539
     54 H23         3.1101   -3.6109   -9.5912 H         1 <0>         0.0436
@<TRIPOS>BOND
     1    1    2 1
     2    1   33 1
     3    1   34 1
     4    1   35 1
     5    2    6 1
     6    2    3 2
     7    3    4 1
     8    3   36 1
     9    4    5 2
    10    4   14 1
    11    5    6 1
    12    5   13 1
    13    6    7 1
    14    7   12 ar
    15    7    8 ar
    16    8    9 ar
    17    8   37 1
    18    9   10 ar
    19    9   38 1
    20   10   11 ar
    21   10   39 1
    22   11   12 ar
    23   11   40 1
    24   12   41 1
    25   13   42 1
    26   13   43 1
    27   13   44 1
    28   14   15 2
    29   14   16 1
    30   16   17 1
    31   16   18 1
    32   16   19 1
    33   18   45 1
    34   18   46 1
    35   18   47 1
    36   19   20 1
    37   20   26 ar
    38   20   21 ar
    39   21   22 ar
    40   22   23 1
    41   22   24 ar
    42   24   28 1
    43   24   25 ar
    44   25   26 ar
    45   25   27 1
    46   27   48 1
    47   27   49 1
    48   27   50 1
    49   28   29 1
    50   28   51 1
    51   28   52 1
    52   29   30 1
    53   29   53 1
    54   29   54 1
    55   30   31 2
    56   30   32 1
@<TRIPOS>MOLECULE
ZINC16956698
   37    39     0     0     0
SMALL
USER_CHARGES

@<TRIPOS>ATOM
      1 C1         -0.5274    0.9926    0.4901 C.3       1 <0>        -0.1486
      2 C2         -0.2440   -0.4969    0.2850 C.3       1 <0>         0.0588
      3 O1          0.4359   -0.6857   -0.9576 O.3       1 <0>        -0.3382
      4 C3          0.7612   -1.9516   -1.2916 C.2       1 <0>         0.5421
      5 O2          0.4747   -2.8699   -0.5469 O.2       1 <0>        -0.4969
      6 C4          1.4586   -2.2201   -2.5493 C.2       1 <0>        -0.2603
      7 C5          2.9085   -2.2383   -2.6297 C.2       1 <0>         0.0269
      8 C6          3.4205   -2.5015   -3.8630 C.2       1 <0>        -0.2199
      9 S1          1.9702   -2.7152   -4.8710 S.3       1 <0>         0.2170
     10 C7          0.7692   -2.4761   -3.7250 C.2       1 <0>         0.1082
     11 N1         -0.6013   -2.5218   -3.9113 N.pl3     1 <0>        -0.5652
     12 C8         -1.1063   -2.7864   -5.1306 C.2       1 <0>         0.2012
     13 C9         -2.4787   -2.7169   -5.3449 C.2       1 <0>        -0.3077
     14 C10        -3.3918   -2.1820   -4.3238 C.2       1 <0>         0.4945
     15 N2         -4.6904   -2.1489   -4.6042 N.2       1 <0>        -0.6570
     16 C11        -5.1627   -2.5810   -5.7639 C.2       1 <0>         0.5842
     17 N3         -4.4052   -3.0757   -6.7314 N.2       1 <0>        -0.6584
     18 C12        -3.0855   -3.1690   -6.6057 C.2       1 <0>         0.5037
     19 O3         -2.3315   -3.6652   -7.5953 O.2       1 <0>        -0.6567
     20 S2         -6.9014   -2.4929   -6.0353 S.3       1 <0>        -0.8372
     21 O4         -2.9287   -1.7420   -3.1465 O.3       1 <0>        -0.6647
     22 C13         3.7682   -1.9881   -1.4543 C.2       1 <0>        -0.0804
     23 C14         4.8292   -2.7190   -0.9899 C.2       1 <0>        -0.1495
     24 C15         5.4882   -2.2844    0.1406 C.2       1 <0>        -0.1526
     25 C16         5.0678   -1.1507    0.7563 C.2       1 <0>        -0.1926
     26 S3          3.6991   -0.6499   -0.2745 S.3       1 <0>         0.0691
     27 H1          0.4134    1.5429    0.5034 H         1 <0>         0.0616
     28 H2         -1.1513    1.3593   -0.3249 H         1 <0>         0.0713
     29 H3         -1.0460    1.1366    1.4379 H         1 <0>         0.0752
     30 H4          0.3799   -0.8637    1.1000 H         1 <0>         0.0614
     31 H5         -1.1848   -1.0472    0.2716 H         1 <0>         0.0716
     32 H6          4.4573   -2.5649   -4.1585 H         1 <0>         0.1939
     33 H7         -1.1979   -2.3630   -3.1632 H         1 <0>         0.4355
     34 H8         -0.4458   -3.0527   -5.9425 H         1 <0>         0.1579
     35 H9          5.1433   -3.6182   -1.4988 H         1 <0>         0.1367
     36 H10         6.3282   -2.8396    0.5312 H         1 <0>         0.1320
     37 H11         5.4622   -0.6723    1.6406 H         1 <0>         0.1830
@<TRIPOS>BOND
     1    1    2 1
     2    1   27 1
     3    1   28 1
     4    1   29 1
     5    2    3 1
     6    2   30 1
     7    2   31 1
     8    3    4 1
     9    4    5 2
    10    4    6 1
    11    6   10 2
    12    6    7 1
    13    7    8 2
    14    7   22 1
    15    8    9 1
    16    8   32 1
    17    9   10 1
    18   10   11 1
    19   11   12 1
    20   11   33 1
    21   12   13 2
    22   12   34 1
    23   13   18 1
    24   13   14 1
    25   14   15 2
    26   14   21 1
    27   15   16 1
    28   16   17 2
    29   16   20 1
    30   17   18 1
    31   18   19 2
    32   22   26 1
    33   22   23 2
    34   23   24 1
    35   23   35 1
    36   24   25 2
    37   24   36 1
    38   25   26 1
    39   25   37 1
@<TRIPOS>MOLECULE
ZINC16910626
   43    45     0     0     0
SMALL
USER_CHARGES
(2S)-2-[2-[(E)-[2-[[4-chloro-3-(trifluoromethyl)phenyl]amino]-4-oxo-thiazol-5-ylidene]methyl]phenoxy]propanoic acid
@<TRIPOS>ATOM
      1 C1         13.4103    2.1135   -1.2667 C.3       1 <0>        -0.1537
      2 C2         12.3070    2.4792   -2.2617 C.3       1 <0>         0.0381
      3 H1         12.2368    3.5670   -2.4095 H         1 <0>         0.0724
      4 C3         12.5643    1.7855   -3.5745 C.2       1 <0>         0.4737
      5 O1         11.7479    1.0147   -4.0207 O.co2     1 <0>        -0.6095
      6 O2         13.7006    2.0240   -4.2482 O.co2     1 <0>        -0.7606
      7 O3         11.0416    2.0641   -1.7436 O.3       1 <0>        -0.2853
      8 C4         10.4192    2.9114   -0.8855 C.ar      1 <0>         0.1665
      9 C5         11.0591    4.0638   -0.4582 C.ar      1 <0>        -0.2351
     10 C6         10.4248    4.9255    0.4158 C.ar      1 <0>        -0.0690
     11 C7          9.1464    4.6472    0.8726 C.ar      1 <0>        -0.1836
     12 C8          8.4910    3.5099    0.4552 C.ar      1 <0>         0.0000
     13 C9          9.1233    2.6242   -0.4257 C.ar      1 <0>        -0.1116
     14 C10         8.4344    1.4071   -0.8705 C.2       1 <0>         0.0371
     15 C11         7.1042    1.4397   -1.1392 C.2       1 <0>        -0.2212
     16 C12         6.1728    2.5910   -1.1828 C.2       1 <0>         0.5339
     17 O4          6.5477    3.7313   -0.9608 O.2       1 <0>        -0.5150
     18 N1          4.9204    2.3170   -1.4741 N.2       1 <0>        -0.7170
     19 C13         4.5009    1.0853   -1.7172 C.2       1 <0>         0.4571
     20 S1          5.9815    0.1040   -1.5315 S.3       1 <0>        -0.1236
     21 N2          3.2346    0.6640   -2.0302 N.2       1 <0>        -0.5859
     22 C14         2.2117    1.5998   -2.2142 C.ar      1 <0>         0.1829
     23 C15         0.8906    1.2425   -1.9760 C.ar      1 <0>        -0.1149
     24 C16        -0.1174    2.1683   -2.1592 C.ar      1 <0>        -0.0939
     25 C17         0.1875    3.4513   -2.5795 C.ar      1 <0>        -0.0536
     26 C18         1.5026    3.8100   -2.8170 C.ar      1 <0>        -0.1562
     27 C19         2.5148    2.8879   -2.6357 C.ar      1 <0>        -0.1059
     28 C20         1.8308    5.2079   -3.2744 C.3       1 <0>         0.5072
     29 F1          3.2138    5.3297   -3.4465 F         1 <0>        -0.1688
     30 F2          1.1853    5.4648   -4.4888 F         1 <0>        -0.1808
     31 F3          1.3978    6.1270   -2.3126 F         1 <0>        -0.1782
     32 Cl1        -1.0816    4.6147   -2.8020 Cl        1 <0>        -0.0851
     33 H2         13.2224    2.6199   -0.3084 H         1 <0>         0.0511
     34 H3         14.3844    2.4331   -1.6655 H         1 <0>         0.0762
     35 H4         13.4173    1.0246   -1.1108 H         1 <0>         0.0601
     36 H5         12.0556    4.2886   -0.8087 H         1 <0>         0.1283
     37 H6         10.9285    5.8223    0.7450 H         1 <0>         0.1146
     38 H7          8.6598    5.3277    1.5556 H         1 <0>         0.1151
     39 H8          7.4928    3.2996    0.8101 H         1 <0>         0.1291
     40 H9          8.9960    0.4684   -0.9862 H         1 <0>         0.1382
     41 H10         0.6521    0.2416   -1.6478 H         1 <0>         0.1327
     42 H11        -1.1447    1.8910   -1.9742 H         1 <0>         0.1313
     43 H12         3.5411    3.1684   -2.8213 H         1 <0>         0.1629
@<TRIPOS>BOND
     1    1    2 1
     2    1   33 1
     3    1   34 1
     4    1   35 1
     5    2    3 1
     6    2    4 1
     7    2    7 1
     8    4    5 2
     9    4    6 1
    10    7    8 1
    11    8   13 ar
    12    8    9 ar
    13    9   10 ar
    14    9   36 1
    15   10   11 ar
    16   10   37 1
    17   11   12 ar
    18   11   38 1
    19   12   13 ar
    20   12   39 1
    21   13   14 1
    22   14   15 2
    23   14   40 1
    24   15   20 1
    25   15   16 1
    26   16   17 2
    27   16   18 1
    28   18   19 2
    29   19   20 1
    30   19   21 1
    31   21   22 1
    32   22   27 ar
    33   22   23 ar
    34   23   24 ar
    35   23   41 1
    36   24   25 ar
    37   24   42 1
    38   25   26 ar
    39   25   32 1
    40   26   27 ar
    41   26   28 1
    42   27   43 1
    43   28   29 1
    44   28   30 1
    45   28   31 1
@<TRIPOS>MOLECULE
ZINC13214718
   52    55     0     0     0
SMALL
USER_CHARGES

@<TRIPOS>ATOM
      1 C1          5.1821   -1.3259    0.3629 C.3       1 <0>        -0.1481
      2 C2          3.8781   -2.1222    0.2840 C.3       1 <0>         0.0566
      3 O1          3.2011   -1.8081   -0.9347 O.3       1 <0>        -0.3011
      4 C3          1.9808   -2.3748   -1.1263 C.ar      1 <0>         0.1460
      5 C4          1.4111   -3.1521   -0.1282 C.ar      1 <0>        -0.2168
      6 C5          0.1705   -3.7265   -0.3252 C.ar      1 <0>        -0.0823
      7 C6         -0.5037   -3.5274   -1.5161 C.ar      1 <0>        -0.1669
      8 C7          0.0620   -2.7537   -2.5123 C.ar      1 <0>        -0.0487
      9 C8          1.3002   -2.1722   -2.3179 C.ar      1 <0>        -0.1239
     10 C9          1.9135   -1.3238   -3.4019 C.3       1 <0>         0.2812
     11 H1          2.3749   -0.4370   -2.9673 H         1 <0>         0.0727
     12 C10         0.8587   -0.9215   -4.4061 C.2       1 <0>        -0.5061
     13 C11         1.2418   -1.4316   -5.6003 C.2       1 <0>         0.2744
     14 C12         2.5155   -2.1608   -5.4306 C.2       1 <0>         0.5158
     15 O2          3.1163   -2.7311   -6.3197 O.2       1 <0>        -0.5264
     16 N1          2.9131   -2.0998   -4.1454 N.am      1 <0>        -0.5624
     17 C13         4.0715   -2.6741   -3.6128 C.ar      1 <0>         0.1719
     18 C14         4.0622   -3.9966   -3.1994 C.ar      1 <0>        -0.0573
     19 C15         5.2220   -4.5654   -2.6687 C.ar      1 <0>        -0.1251
     20 C16         6.3844   -3.7967   -2.5581 C.ar      1 <0>        -0.0797
     21 C17         6.3833   -2.4815   -2.9724 C.ar      1 <0>        -0.1302
     22 C18         5.2355   -1.9191   -3.5033 C.ar      1 <0>        -0.0233
     23 Cl1         5.2460   -0.2646   -4.0287 Cl        1 <0>        -0.0845
     24 C19         5.2204   -5.9722   -2.2259 C.2       1 <0>         0.5245
     25 O3          4.2022   -6.6427   -2.3232 O.co2     1 <0>        -0.6811
     26 O4          6.2372   -6.4683   -1.7614 O.co2     1 <0>        -0.6932
     27 O5          0.5657   -1.2951   -6.7642 O.3       1 <0>        -0.6574
     28 C20        -0.3469   -0.1318   -4.1388 C.2       1 <0>         0.5048
     29 O6         -1.4463   -0.6371   -4.2684 O.2       1 <0>        -0.4643
     30 C21        -0.2273    1.2774   -3.7122 C.ar      1 <0>        -0.1694
     31 C22         1.0253    1.8953   -3.6727 C.ar      1 <0>        -0.0324
     32 C23         1.1297    3.2105   -3.2742 C.ar      1 <0>        -0.1498
     33 C24        -0.0025    3.9213   -2.9124 C.ar      1 <0>        -0.0807
     34 C25        -1.2463    3.3192   -2.9481 C.ar      1 <0>        -0.1786
     35 C26        -1.3684    2.0020   -3.3512 C.ar      1 <0>         0.1397
     36 F1         -2.5847    1.4153   -3.3910 F         1 <0>        -0.1231
     37 H2          5.8557   -1.6522   -0.4295 H         1 <0>         0.0705
     38 H3          4.9672   -0.2640    0.2427 H         1 <0>         0.0612
     39 H4          5.6524   -1.4939    1.3318 H         1 <0>         0.0690
     40 H5          4.1015   -3.1888    0.3111 H         1 <0>         0.0616
     41 H6          3.2420   -1.8627    1.1302 H         1 <0>         0.0515
     42 H7          1.9374   -3.3082    0.8019 H         1 <0>         0.1193
     43 H8         -0.2732   -4.3320    0.4513 H         1 <0>         0.1143
     44 H9         -1.4736   -3.9774   -1.6682 H         1 <0>         0.1161
     45 H10        -0.4663   -2.6000   -3.4416 H         1 <0>         0.1455
     46 H11         3.1611   -4.5853   -3.2869 H         1 <0>         0.1303
     47 H12         7.2833   -4.2329   -2.1479 H         1 <0>         0.1318
     48 H13         7.2824   -1.8893   -2.8862 H         1 <0>         0.1236
     49 H14         1.9100    1.3432   -3.9536 H         1 <0>         0.1448
     50 H15         2.0978    3.6883   -3.2436 H         1 <0>         0.1278
     51 H16         0.0868    4.9514   -2.6005 H         1 <0>         0.1268
     52 H17        -2.1248    3.8798   -2.6645 H         1 <0>         0.1308
@<TRIPOS>BOND
     1    1    2 1
     2    1   37 1
     3    1   38 1
     4    1   39 1
     5    2    3 1
     6    2   40 1
     7    2   41 1
     8    3    4 1
     9    4    9 ar
    10    4    5 ar
    11    5    6 ar
    12    5   42 1
    13    6    7 ar
    14    6   43 1
    15    7    8 ar
    16    7   44 1
    17    8    9 ar
    18    8   45 1
    19    9   10 1
    20   10   11 1
    21   10   16 1
    22   10   12 1
    23   12   13 2
    24   12   28 1
    25   13   14 1
    26   13   27 1
    27   14   15 2
    28   14   16 am
    29   16   17 1
    30   17   22 ar
    31   17   18 ar
    32   18   19 ar
    33   18   46 1
    34   19   20 ar
    35   19   24 1
    36   20   21 ar
    37   20   47 1
    38   21   22 ar
    39   21   48 1
    40   22   23 1
    41   24   25 2
    42   24   26 1
    43   28   29 2
    44   28   30 1
    45   30   35 ar
    46   30   31 ar
    47   31   32 ar
    48   31   49 1
    49   32   33 ar
    50   32   50 1
    51   33   34 ar
    52   33   51 1
    53   34   35 ar
    54   34   52 1
    55   35   36 1
@<TRIPOS>MOLECULE
ZINC13252070
   47    49     0     0     0
SMALL
USER_CHARGES

@<TRIPOS>ATOM
      1 C1         -0.0187    1.5258    0.0104 C.3       1 <0>        -0.1500
      2 C2          0.0021   -0.0041    0.0020 C.3       1 <0>        -0.1046
      3 H1          0.5123   -0.3556   -0.8948 H         1 <0>         0.1020
      4 C3         -1.4333   -0.5336    0.0129 C.3       1 <0>        -0.1064
      5 C4         -1.4126   -2.0635    0.0045 C.3       1 <0>        -0.1210
      6 C5         -0.6726   -2.5703    1.2440 C.3       1 <0>        -0.1114
      7 C6          0.7628   -2.0407    1.2331 C.3       1 <0>        -0.1401
      8 C7          0.7421   -0.5109    1.2415 C.3       1 <0>         0.1571
      9 H2          0.2319   -0.1594    2.1383 H         1 <0>         0.1047
     10 N1          2.1165   -0.0038    1.2311 N.pl3     1 <0>        -0.8765
     11 C8          2.9668   -0.3223    0.1788 C.2       1 <0>         0.2689
     12 N2          2.7315   -1.0517   -0.8942 N.2       1 <0>        -0.3222
     13 N3          3.7272   -1.2433   -1.8239 N.2       1 <0>        -0.3596
     14 C9          4.9131   -0.6963   -1.6375 C.2       1 <0>         0.2830
     15 S1          6.3516   -0.7762   -2.6519 S.3       1 <0>        -0.6983
     16 S2          4.6682    0.1534   -0.0855 S.3       1 <0>        -0.0825
     17 S3          2.6570    0.9488    2.4732 S.o2      1 <0>         2.6756
     18 O1          3.7362    1.7156    1.9569 O.2       1 <0>        -0.9239
     19 O2          1.5074    1.5474    3.0558 O.2       1 <0>        -0.9461
     20 C10         3.3395   -0.1236    3.6933 C.ar      1 <0>        -0.6937
     21 C11         2.5303   -0.6281    4.6965 C.ar      1 <0>        -0.0179
     22 C12         3.0567   -1.4678    5.6550 C.ar      1 <0>        -0.1418
     23 C13         4.4126   -1.8096    5.6116 C.ar      1 <0>         0.0281
     24 C14         5.2237   -1.2954    4.5944 C.ar      1 <0>        -0.1426
     25 C15         4.6808   -0.4614    3.6401 C.ar      1 <0>        -0.0055
     26 C16         4.9825   -2.7045    6.6305 C.2       1 <0>        -0.1342
     27 C17         6.2927   -3.0323    6.5852 C.2       1 <0>        -0.1419
     28 C18         6.8413   -3.8937    7.5660 C.2       1 <0>         0.4999
     29 O3          6.1282   -4.3418    8.4555 O.co2     1 <0>        -0.6933
     30 O4          8.0290   -4.1908    7.5249 O.co2     1 <0>        -0.6938
     31 H3          1.0039    1.9031    0.0027 H         1 <0>         0.0478
     32 H4         -0.5459    1.8868   -0.8726 H         1 <0>         0.0565
     33 H5         -0.5289    1.8773    0.9072 H         1 <0>         0.0591
     34 H6         -1.9435   -0.1821    0.9097 H         1 <0>         0.0611
     35 H7         -1.9605   -0.1726   -0.8702 H         1 <0>         0.0637
     36 H8         -2.4352   -2.4408    0.0122 H         1 <0>         0.0582
     37 H9         -0.9024   -2.4150   -0.8923 H         1 <0>         0.0680
     38 H10        -1.1828   -2.2188    2.1408 H         1 <0>         0.0601
     39 H11        -0.6578   -3.6602    1.2380 H         1 <0>         0.0645
     40 H12         1.2900   -2.4018    2.1162 H         1 <0>         0.0648
     41 H13         1.2730   -2.3923    0.3363 H         1 <0>         0.0949
     42 H14         1.4838   -0.3630    4.7288 H         1 <0>         0.1353
     43 H15         2.4241   -1.8604    6.4374 H         1 <0>         0.1340
     44 H16         6.2715   -1.5543    4.5543 H         1 <0>         0.1384
     45 H17         5.3045   -0.0674    2.8514 H         1 <0>         0.1423
     46 H18         4.3538   -3.0996    7.4148 H         1 <0>         0.1335
     47 H19         6.9214   -2.6372    5.8010 H         1 <0>         0.1058
@<TRIPOS>BOND
     1    1    2 1
     2    1   31 1
     3    1   32 1
     4    1   33 1
     5    2    3 1
     6    2    8 1
     7    2    4 1
     8    4    5 1
     9    4   34 1
    10    4   35 1
    11    5    6 1
    12    5   36 1
    13    5   37 1
    14    6    7 1
    15    6   38 1
    16    6   39 1
    17    7    8 1
    18    7   40 1
    19    7   41 1
    20    8    9 1
    21    8   10 1
    22   10   11 1
    23   10   17 1
    24   11   16 1
    25   11   12 2
    26   12   13 1
    27   13   14 2
    28   14   15 1
    29   14   16 1
    30   17   18 2
    31   17   19 2
    32   17   20 1
    33   20   25 ar
    34   20   21 ar
    35   21   22 ar
    36   21   42 1
    37   22   23 ar
    38   22   43 1
    39   23   24 ar
    40   23   26 1
    41   24   25 ar
    42   24   44 1
    43   25   45 1
    44   26   27 2
    45   26   46 1
    46   27   28 1
    47   27   47 1
    48   28   29 2
    49   28   30 1
@<TRIPOS>MOLECULE
ZINC58961717
   53    55     0     0     0
SMALL
USER_CHARGES

@<TRIPOS>ATOM
      1 C1          0.2691    1.5069   -0.1726 C.3       1 <0>        -0.1481
      2 C2          0.2296   -0.0223   -0.1400 C.3       1 <0>         0.0690
      3 O1          0.8640   -0.4898    1.0521 O.3       1 <0>        -0.3348
      4 C3          0.9142   -1.8247    1.2356 C.2       1 <0>         0.4712
      5 O2          0.3797   -2.6523    0.3151 O.3       1 <0>        -0.6727
      6 C4          1.5059   -2.3379    2.3528 C.2       1 <0>        -0.4517
      7 C5          1.4976   -3.7137    2.6236 C.2       1 <0>         0.3368
      8 N1          2.0743   -4.1811    3.7056 N.2       1 <0>        -0.6573
      9 C6          2.6995   -3.4279    4.6168 C.2       1 <0>         0.3592
     10 N2          2.8046   -2.1264    4.5265 N.2       1 <0>        -0.6129
     11 C7          2.2112   -1.4484    3.3605 C.3       1 <0>         0.2108
     12 H1          3.0015   -0.9072    2.8403 H         1 <0>         0.0449
     13 C8          1.2171   -0.4362    3.8688 C.ar      1 <0>        -0.0319
     14 C9          0.3108   -0.7924    4.8508 C.ar      1 <0>        -0.0804
     15 C10        -0.6018    0.1322    5.3186 C.ar      1 <0>        -0.1028
     16 C11        -0.6085    1.4223    4.8017 C.ar      1 <0>        -0.1010
     17 C12         0.3040    1.7768    3.8153 C.ar      1 <0>        -0.1364
     18 C13         1.2171    0.8483    3.3561 C.ar      1 <0>        -0.0764
     19 S1         -1.7716    2.6054    5.3952 S.3       1 <0>        -0.1471
     20 C14        -1.3981    4.1036    4.4431 C.3       1 <0>        -0.1368
     21 S2          3.4187   -4.2292    6.0115 S.3       1 <0>        -0.0587
     22 C15         4.1456   -2.8720    6.9708 C.3       1 <0>        -0.0441
     23 C16         4.8026   -3.4271    8.2082 C.ar      1 <0>        -0.0822
     24 C17         4.0711   -3.5606    9.3753 C.ar      1 <0>        -0.1186
     25 C18         4.6659   -4.0675   10.5117 C.ar      1 <0>        -0.0875
     26 C19         6.0103   -4.4470   10.4825 C.ar      1 <0>        -0.1330
     27 C20         6.7424   -4.3097    9.3005 C.ar      1 <0>        -0.0878
     28 C21         6.1330   -3.8062    8.1703 C.ar      1 <0>        -0.1190
     29 C22         6.6537   -4.9895   11.6943 C.2       1 <0>         0.5218
     30 O3          6.0103   -5.1080   12.7275 O.co2     1 <0>        -0.6912
     31 O4          7.8306   -5.3208   11.6655 O.co2     1 <0>        -0.6916
     32 C23         0.8217   -4.6614    1.6664 C.3       1 <0>        -0.0817
     33 H2          1.3056    1.8439   -0.1564 H         1 <0>         0.0591
     34 H3         -0.2147    1.8635   -1.0819 H         1 <0>         0.0654
     35 H4         -0.2553    1.9025    0.6972 H         1 <0>         0.0599
     36 H5         -0.8069   -0.3594   -0.1562 H         1 <0>         0.0529
     37 H6          0.7540   -0.4180   -1.0098 H         1 <0>         0.0529
     38 H7          0.3166   -1.7951    5.2520 H         1 <0>         0.1144
     39 H8         -1.3098   -0.1468    6.0850 H         1 <0>         0.1164
     40 H9          0.3017    2.7784    3.4114 H         1 <0>         0.1109
     41 H10         1.9293    1.1242    2.5924 H         1 <0>         0.1184
     42 H11        -0.3690    4.4081    4.6337 H         1 <0>         0.0799
     43 H12        -1.5258    3.8998    3.3800 H         1 <0>         0.0793
     44 H13        -2.0752    4.9033    4.7436 H         1 <0>         0.1008
     45 H14         4.8902   -2.3565    6.3642 H         1 <0>         0.0899
     46 H15         3.3626   -2.1705    7.2587 H         1 <0>         0.0905
     47 H16         3.0320   -3.2669    9.3964 H         1 <0>         0.1159
     48 H17         4.0940   -4.1705   11.4221 H         1 <0>         0.1249
     49 H18         7.7820   -4.6011    9.2708 H         1 <0>         0.1247
     50 H19         6.6965   -3.7037    7.2547 H         1 <0>         0.1157
     51 H20         1.3150   -4.6106    0.6958 H         1 <0>         0.0785
     52 H21         0.8870   -5.6778    2.0545 H         1 <0>         0.0466
     53 H22        -0.2259   -4.3810    1.5566 H         1 <0>         0.0754
@<TRIPOS>BOND
     1    1    2 1
     2    1   33 1
     3    1   34 1
     4    1   35 1
     5    2    3 1
     6    2   36 1
     7    2   37 1
     8    3    4 1
     9    4    5 1
    10    4    6 2
    11    6   11 1
    12    6    7 1
    13    7    8 2
    14    7   32 1
    15    8    9 1
    16    9   10 2
    17    9   21 1
    18   10   11 1
    19   11   12 1
    20   11   13 1
    21   13   18 ar
    22   13   14 ar
    23   14   15 ar
    24   14   38 1
    25   15   16 ar
    26   15   39 1
    27   16   17 ar
    28   16   19 1
    29   17   18 ar
    30   17   40 1
    31   18   41 1
    32   19   20 1
    33   20   42 1
    34   20   43 1
    35   20   44 1
    36   21   22 1
    37   22   23 1
    38   22   45 1
    39   22   46 1
    40   23   28 ar
    41   23   24 ar
    42   24   25 ar
    43   24   47 1
    44   25   26 ar
    45   25   48 1
    46   26   27 ar
    47   26   29 1
    48   27   28 ar
    49   27   49 1
    50   28   50 1
    51   29   30 2
    52   29   31 1
    53   32   51 1
    54   32   52 1
    55   32   53 1
@<TRIPOS>MOLECULE
ZINC13114402
   53    55     0     0     0
SMALL
USER_CHARGES

@<TRIPOS>ATOM
      1 C1         -0.0184    1.5028    0.0103 C.3       1 <0>        -0.0761
      2 C2          0.0021   -0.0041    0.0020 C.2       1 <0>         0.3214
      3 C3         -1.2184   -0.6930    0.0043 C.2       1 <0>        -0.4292
      4 C4         -1.1658   -2.2120   -0.0043 C.3       1 <0>         0.1175
      5 H1         -1.7005   -2.5670   -0.8853 H         1 <0>         0.0371
      6 C5          0.2176   -2.8185   -0.0144 C.ar      1 <0>        -0.3565
      7 C6          0.4170   -4.1838   -0.0233 C.ar      1 <0>         0.4601
      8 O1         -0.6363   -5.0371   -0.0234 O.3       1 <0>        -0.7066
      9 N1          1.6676   -4.6461   -0.0324 N.ar      1 <0>        -0.6395
     10 C7          2.6985   -3.8125   -0.0328 C.ar      1 <0>         0.3361
     11 N2          2.5453   -2.4975   -0.0240 N.ar      1 <0>        -0.5871
     12 C8          1.3212   -1.9571   -0.0151 C.ar      1 <0>         0.4101
     13 N3          1.1556   -0.6145   -0.0123 N.2       1 <0>        -0.6193
     14 S1          4.3299   -4.4782   -0.0450 S.3       1 <0>        -0.0721
     15 C9          4.0712   -6.2736   -0.0540 C.3       1 <0>        -0.0702
     16 C10         5.4058   -6.9734   -0.0649 C.2       1 <0>        -0.1250
     17 C11         5.7685   -7.7081    0.9573 C.2       1 <0>        -0.1879
     18 C12        -1.8888   -2.7160    1.2181 C.ar      1 <0>         0.0515
     19 C13        -1.4503   -2.3487    2.4780 C.ar      1 <0>        -0.1236
     20 C14        -2.1075   -2.8064    3.6011 C.ar      1 <0>        -0.0614
     21 C15        -3.2176   -3.6422    3.4644 C.ar      1 <0>        -0.1711
     22 C16        -3.6547   -4.0090    2.1901 C.ar      1 <0>        -0.0675
     23 C17        -2.9917   -3.5394    1.0753 C.ar      1 <0>        -0.0907
     24 C18        -3.9261   -4.1367    4.6627 C.2       1 <0>         0.5189
     25 O2         -3.5432   -3.8163    5.7701 O.2       1 <0>        -0.5278
     26 O3         -4.9967   -4.9429    4.5274 O.3       1 <0>        -0.3523
     27 C19        -5.6332   -5.3834    5.7286 C.3       1 <0>         0.0369
     28 C20        -2.4065   -0.0267    0.0142 C.2       1 <0>         0.4547
     29 O4         -2.4233    1.3222    0.0221 O.3       1 <0>        -0.6905
     30 O5         -3.5663   -0.7158    0.0161 O.3       1 <0>        -0.3336
     31 C21        -4.7743    0.0475    0.0267 C.3       1 <0>         0.0999
     32 C22        -5.9579   -0.8853    0.0274 C.2       1 <0>        -0.1321
     33 C23        -6.9648   -0.6654    0.8360 C.2       1 <0>        -0.1985
     34 H2          1.0042    1.8801    0.0026 H         1 <0>         0.0367
     35 H3         -0.5455    1.8639   -0.8728 H         1 <0>         0.0730
     36 H4         -0.5286    1.8543    0.9071 H         1 <0>         0.0727
     37 H5          3.5153   -6.5651    0.8371 H         1 <0>         0.0901
     38 H6          3.5063   -6.5548   -0.9428 H         1 <0>         0.0955
     39 H7          6.0633   -6.8692   -0.9153 H         1 <0>         0.1126
     40 H8          6.7249   -8.2097    0.9495 H         1 <0>         0.0967
     41 H9          5.1110   -7.8124    1.8077 H         1 <0>         0.0981
     42 H10        -0.5913   -1.7025    2.5823 H         1 <0>         0.1162
     43 H11        -1.7639   -2.5193    4.5839 H         1 <0>         0.1188
     44 H12        -4.5125   -4.6555    2.0773 H         1 <0>         0.1191
     45 H13        -3.3314   -3.8187    0.0889 H         1 <0>         0.1172
     46 H14        -4.9198   -5.9430    6.3336 H         1 <0>         0.0548
     47 H15        -5.9867   -4.5188    6.2905 H         1 <0>         0.0544
     48 H16        -6.4785   -6.0242    5.4780 H         1 <0>         0.0947
     49 H17        -4.8025    0.6708    0.9205 H         1 <0>         0.0572
     50 H18        -4.8116    0.6811   -0.8594 H         1 <0>         0.0619
     51 H19        -5.9760   -1.7352   -0.6388 H         1 <0>         0.1138
     52 H20        -6.9467    0.1845    1.5022 H         1 <0>         0.0936
     53 H21        -7.8130   -1.3339    0.8365 H         1 <0>         0.0976
@<TRIPOS>BOND
     1    1    2 1
     2    1   34 1
     3    1   35 1
     4    1   36 1
     5    2   13 2
     6    2    3 1
     7    3    4 1
     8    3   28 2
     9    4    5 1
    10    4    6 1
    11    4   18 1
    12    6   12 ar
    13    6    7 ar
    14    7    8 1
    15    7    9 ar
    16    9   10 ar
    17   10   11 ar
    18   10   14 1
    19   11   12 ar
    20   12   13 1
    21   14   15 1
    22   15   16 1
    23   15   37 1
    24   15   38 1
    25   16   17 2
    26   16   39 1
    27   17   40 1
    28   17   41 1
    29   18   23 ar
    30   18   19 ar
    31   19   20 ar
    32   19   42 1
    33   20   21 ar
    34   20   43 1
    35   21   22 ar
    36   21   24 1
    37   22   23 ar
    38   22   44 1
    39   23   45 1
    40   24   25 2
    41   24   26 1
    42   26   27 1
    43   27   46 1
    44   27   47 1
    45   27   48 1
    46   28   29 1
    47   28   30 1
    48   30   31 1
    49   31   32 1
    50   31   49 1
    51   31   50 1
    52   32   33 2
    53   32   51 1
    54   33   52 1
    55   33   53 1
@<TRIPOS>MOLECULE
ZINC13614774
   49    52     0     0     0
SMALL
USER_CHARGES
4-[(5R)-3-(4-bromophenyl)-5-(2-chloro-7-methyl-3-quinolyl)-4,5-dihydropyrazol-1-yl]-4-oxo-butanoic acid
@<TRIPOS>ATOM
      1 C1          6.9391    5.1218   -6.9503 C.3       1 <0>        -0.1174
      2 C2          6.0782    5.3229   -5.7299 C.ar      1 <0>        -0.0599
      3 C3          4.7270    4.9860   -5.7810 C.ar      1 <0>        -0.1113
      4 C4          3.9232    5.1559   -4.6953 C.ar      1 <0>        -0.0832
      5 C5          4.4617    5.6773   -3.5080 C.ar      1 <0>        -0.1014
      6 C6          3.6652    5.8630   -2.3616 C.ar      1 <0>        -0.0158
      7 C7          4.2547    6.3791   -1.2438 C.ar      1 <0>        -0.1331
      8 C8          5.6133    6.6960   -1.2567 C.ar      1 <0>         0.2256
      9 N1          6.3529    6.5171   -2.3253 N.ar      1 <0>        -0.4643
     10 C9          5.8350    6.0205   -3.4537 C.ar      1 <0>         0.1486
     11 C10         6.6327    5.8305   -4.5955 C.ar      1 <0>        -0.0982
     12 Cl1         6.3438    7.3446    0.1783 Cl        1 <0>        -0.0244
     13 C11         3.4403    6.6005    0.0047 C.3       1 <0>         0.1481
     14 H1          4.0465    6.4307    0.8945 H         1 <0>         0.1128
     15 C12         2.8433    8.0217    0.0180 C.3       1 <0>        -0.1201
     16 C13         1.3494    7.7891    0.0310 C.2       1 <0>         0.1172
     17 N2          1.1108    6.5234    0.0204 N.2       1 <0>        -0.2050
     18 N3          2.2551    5.7283    0.0113 N.am      1 <0>        -0.4687
     19 C14         2.2733    4.3807    0.0039 C.2       1 <0>         0.5481
     20 O1          3.3320    3.7885   -0.0094 O.2       1 <0>        -0.5054
     21 C15         0.9786    3.6095    0.0121 C.3       1 <0>        -0.1019
     22 C16         1.2786    2.1093    0.0012 C.3       1 <0>        -0.1454
     23 C17        -0.0161    1.3381    0.0094 C.2       1 <0>         0.4619
     24 O2         -1.0706    1.9279    0.0176 O.co2     1 <0>        -0.6409
     25 C18         0.3233    8.8483    0.0458 C.ar      1 <0>        -0.0087
     26 C19         0.7029   10.1927    0.0544 C.ar      1 <0>        -0.0871
     27 C20        -0.2617   11.1783    0.0634 C.ar      1 <0>        -0.0931
     28 C21        -1.6038   10.8377    0.0745 C.ar      1 <0>        -0.0796
     29 C22        -1.9868    9.5071    0.0713 C.ar      1 <0>        -0.0900
     30 C23        -1.0324    8.5116    0.0570 C.ar      1 <0>        -0.0740
     31 Br1        -2.9194   12.1958    0.0947 Br        1 <0>        -0.0500
     32 H2          6.9213    6.0250   -7.5603 H         1 <0>         0.0753
     33 H3          7.9632    4.9118   -6.6418 H         1 <0>         0.0706
     34 H4          6.5554    4.2832   -7.5314 H         1 <0>         0.0716
     35 H5          4.3121    4.5845   -6.6937 H         1 <0>         0.1324
     36 H6          2.8775    4.8908   -4.7469 H         1 <0>         0.1360
     37 H7          2.6159    5.6076   -2.3678 H         1 <0>         0.1437
     38 H8          7.6816    6.0868   -4.5728 H         1 <0>         0.1382
     39 H9          3.1545    8.5587    0.9141 H         1 <0>         0.1118
     40 H10         3.1394    8.5692   -0.8768 H         1 <0>         0.1053
     41 H11         0.3951    3.8698   -0.8710 H         1 <0>         0.0986
     42 H12         0.4121    3.8603    0.9089 H         1 <0>         0.1004
     43 H13         1.8621    1.8490    0.8842 H         1 <0>         0.0706
     44 H14         1.8451    1.8585   -0.8956 H         1 <0>         0.0695
     45 H15         1.7494   10.4596    0.0503 H         1 <0>         0.1380
     46 H16         0.0304   12.2180    0.0660 H         1 <0>         0.1376
     47 H17        -3.0353    9.2482    0.0796 H         1 <0>         0.1397
     48 H18        -1.3325    7.4742    0.0549 H         1 <0>         0.1481
     49 O3          0.0021   -0.0041    0.0020 O.co2     1 <0>        -0.7709
@<TRIPOS>BOND
     1    1    2 1
     2    1   32 1
     3    1   33 1
     4    1   34 1
     5    2   11 ar
     6    2    3 ar
     7    3    4 ar
     8    3   35 1
     9    4    5 ar
    10    4   36 1
    11    5   10 ar
    12    5    6 ar
    13    6    7 ar
    14    6   37 1
    15    7    8 ar
    16    7   13 1
    17    8    9 ar
    18    8   12 1
    19    9   10 ar
    20   10   11 ar
    21   11   38 1
    22   13   14 1
    23   13   18 1
    24   13   15 1
    25   15   16 1
    26   15   39 1
    27   15   40 1
    28   16   17 2
    29   16   25 1
    30   17   18 1
    31   18   19 am
    32   19   20 2
    33   19   21 1
    34   21   22 1
    35   21   41 1
    36   21   42 1
    37   22   23 1
    38   22   43 1
    39   22   44 1
    40   23   24 2
    41   23   49 1
    42   25   30 ar
    43   25   26 ar
    44   26   27 ar
    45   26   45 1
    46   27   28 ar
    47   27   46 1
    48   28   29 ar
    49   28   31 1
    50   29   30 ar
    51   29   47 1
    52   30   48 1
@<TRIPOS>MOLECULE
ZINC33352834
   50    54     0     0     0
SMALL
USER_CHARGES
(5Z)-5-[[1-[(2,4-dichlorophenyl)methyl]indol-3-yl]methylene]-1-(2-furylmethyl)hexahydropyrimidine-2,4,6-trione
@<TRIPOS>ATOM
      1 C1         -5.8487    3.4109   -0.2949 C.ar      1 <0>        -0.1388
      2 C2         -6.6570    2.2846   -0.3356 C.ar      1 <0>        -0.1167
      3 C3         -6.1044    1.0225   -0.3089 C.ar      1 <0>        -0.1209
      4 C4         -4.7232    0.8702   -0.2408 C.ar      1 <0>         0.0803
      5 C5         -3.9078    2.0113   -0.2001 C.ar      1 <0>        -0.0583
      6 C6         -4.4781    3.2800   -0.2277 C.ar      1 <0>        -0.0815
      7 C7         -2.5190    1.5125   -0.1322 C.2       1 <0>        -0.2201
      8 C8         -2.6067    0.1310   -0.1434 C.2       1 <0>         0.2008
      9 N1         -3.8992   -0.2374   -0.2010 N.pl3     1 <0>        -0.4616
     10 C9         -4.3686   -1.6249   -0.2256 C.3       1 <0>         0.1441
     11 C10        -4.9849   -1.9704    1.1055 C.ar      1 <0>        -0.1047
     12 C11        -6.3449   -1.8147    1.2987 C.ar      1 <0>        -0.0763
     13 C12        -6.9108   -2.1313    2.5191 C.ar      1 <0>        -0.1137
     14 C13        -6.1164   -2.6048    3.5484 C.ar      1 <0>        -0.0149
     15 C14        -4.7557   -2.7608    3.3558 C.ar      1 <0>        -0.1066
     16 C15        -4.1905   -2.4486    2.1322 C.ar      1 <0>        -0.0079
     17 Cl1        -2.4839   -2.6513    1.8870 Cl        1 <0>        -0.0027
     18 Cl2        -6.8276   -3.0035    5.0810 Cl        1 <0>        -0.0604
     19 C16        -1.3423    2.2866   -0.0740 C.2       1 <0>         0.0964
     20 C17        -0.2909    1.8914    0.7422 C.2       1 <0>        -0.2983
     21 C18         1.0089    2.5843    0.7112 C.2       1 <0>         0.5366
     22 O1          1.1953    3.5299   -0.0316 O.3       1 <0>        -0.5688
     23 N2          1.9871    2.1418    1.5279 N.2       1 <0>        -0.7104
     24 C19         1.7953    1.1014    2.3510 C.2       1 <0>         0.6644
     25 O2          2.7172    0.7523    3.0619 O.2       1 <0>        -0.5918
     26 N3          0.6406    0.4254    2.4311 N.am      1 <0>        -0.5791
     27 C20        -0.4245    0.7568    1.6725 C.2       1 <0>         0.5638
     28 O3         -1.4673    0.1351    1.7541 O.2       1 <0>        -0.5192
     29 C21         0.5329   -0.6994    3.3637 C.3       1 <0>         0.1857
     30 C22         0.9445   -1.9707    2.6669 C.2       1 <0>        -0.0131
     31 C23         2.1925   -2.4696    2.6131 C.2       1 <0>        -0.1863
     32 C24         2.1225   -3.6683    1.8667 C.2       1 <0>        -0.2121
     33 C25         0.8374   -3.8259    1.5020 C.2       1 <0>        -0.0555
     34 O4          0.1284   -2.7946    1.9895 O.3       1 <0>        -0.1728
     35 H1         -6.2948    4.3942   -0.3161 H         1 <0>         0.1196
     36 H2         -7.7298    2.3978   -0.3885 H         1 <0>         0.1198
     37 H3         -6.7432    0.1521   -0.3404 H         1 <0>         0.1126
     38 H4         -3.8501    4.1581   -0.1968 H         1 <0>         0.1224
     39 H5         -1.7667   -0.5469   -0.1086 H         1 <0>         0.1741
     40 H6         -5.1205   -1.7436   -1.0197 H         1 <0>         0.0982
     41 H7         -3.5193   -2.2959   -0.4217 H         1 <0>         0.1084
     42 H8         -6.9653   -1.4452    0.4956 H         1 <0>         0.1394
     43 H9         -7.9734   -2.0095    2.6694 H         1 <0>         0.1395
     44 H10        -4.1352   -3.1300    4.1590 H         1 <0>         0.1440
     45 H11        -1.2571    3.2038   -0.6753 H         1 <0>         0.1395
     46 H12         1.1919   -0.5244    4.2269 H         1 <0>         0.1184
     47 H13        -0.5074   -0.7909    3.7093 H         1 <0>         0.0952
     48 H14         3.0777   -2.0386    3.0570 H         1 <0>         0.1517
     49 H15         2.9440   -4.3289    1.6314 H         1 <0>         0.1432
     50 H16         0.4426   -4.6432    0.9168 H         1 <0>         0.1942
@<TRIPOS>BOND
     1    1    6 ar
     2    1    2 ar
     3    1   35 1
     4    2    3 ar
     5    2   36 1
     6    3    4 ar
     7    3   37 1
     8    4    9 1
     9    4    5 ar
    10    5    6 ar
    11    5    7 1
    12    6   38 1
    13    7    8 2
    14    7   19 1
    15    8    9 1
    16    8   39 1
    17    9   10 1
    18   10   11 1
    19   10   40 1
    20   10   41 1
    21   11   16 ar
    22   11   12 ar
    23   12   13 ar
    24   12   42 1
    25   13   14 ar
    26   13   43 1
    27   14   15 ar
    28   14   18 1
    29   15   16 ar
    30   15   44 1
    31   16   17 1
    32   19   20 2
    33   19   45 1
    34   20   27 1
    35   20   21 1
    36   21   22 1
    37   21   23 2
    38   23   24 1
    39   24   25 2
    40   24   26 am
    41   26   27 am
    42   26   29 1
    43   27   28 2
    44   29   30 1
    45   29   46 1
    46   29   47 1
    47   30   34 1
    48   30   31 2
    49   31   32 1
    50   31   48 1
    51   32   33 2
    52   32   49 1
    53   33   34 1
    54   33   50 1
@<TRIPOS>MOLECULE
ZINC35848536
   59    63     0     0     0
SMALL
USER_CHARGES

@<TRIPOS>ATOM
      1 C1          0.3236    0.9197   -0.5511 C.3       1 <0>        -0.1148
      2 C2         -0.2015   -0.4636   -0.2648 C.ar      1 <0>        -0.0752
      3 C3         -1.0395   -1.0859   -1.1722 C.ar      1 <0>        -0.1105
      4 C4         -1.5233   -2.3549   -0.9131 C.ar      1 <0>        -0.1047
      5 C5         -1.1705   -3.0054    0.2533 C.ar      1 <0>        -0.1153
      6 C6         -0.3291   -2.3836    1.1660 C.ar      1 <0>         0.1487
      7 C7          0.1591   -1.1107    0.9006 C.ar      1 <0>        -0.0652
      8 C8          1.0772   -0.4344    1.8858 C.3       1 <0>        -0.1100
      9 N1          0.0305   -3.0406    2.3498 N.pl3     1 <0>        -0.3236
     10 C9          0.4915   -4.3112    2.4522 C.2       1 <0>         0.3447
     11 C10         0.7297   -4.5721    3.7559 C.2       1 <0>        -0.2272
     12 C11         0.3990   -3.4221    4.4930 C.2       1 <0>         0.1531
     13 N2         -0.0152   -2.5006    3.6446 N.2       1 <0>        -0.2589
     14 C12         0.5032   -3.2693    5.9653 C.ar      1 <0>        -0.0065
     15 C13         1.2589   -2.2325    6.5090 C.ar      1 <0>        -0.0902
     16 C14         1.3520   -2.0947    7.8791 C.ar      1 <0>        -0.1164
     17 C15         0.6969   -2.9836    8.7122 C.ar      1 <0>        -0.1125
     18 C16        -0.0546   -4.0147    8.1780 C.ar      1 <0>        -0.1128
     19 C17        -0.1589   -4.1587    6.8093 C.ar      1 <0>        -0.0816
     20 C18         1.2624   -5.8770    4.2899 C.3       1 <0>         0.0683
     21 H1          2.1063   -6.2039    3.6824 H         1 <0>         0.1345
     22 S1         -0.0711   -7.1264    4.2119 S.3       1 <0>        -0.2052
     23 C19        -0.8376   -6.7571    2.5981 C.3       1 <0>        -0.1157
     24 C20         0.2114   -6.4751    1.5654 C.2       1 <0>         0.5260
     25 O1          0.6194   -7.3723    0.8585 O.2       1 <0>        -0.4878
     26 N3          0.6993   -5.2390    1.4199 N.am      1 <0>        -0.5143
     27 C21         1.4344   -4.8614    0.2103 C.3       1 <0>         0.0452
     28 C22         2.8826   -5.2504    0.3605 C.2       1 <0>         0.4898
     29 O2          3.2652   -5.7927    1.3832 O.co2     1 <0>        -0.6721
     30 O3          3.6716   -5.0227   -0.5407 O.co2     1 <0>        -0.6939
     31 C23         1.7076   -5.6951    5.7181 C.ar      1 <0>        -0.0401
     32 C24         1.1071   -6.4247    6.7275 C.ar      1 <0>        -0.1053
     33 C25         1.5148   -6.2585    8.0377 C.ar      1 <0>        -0.1034
     34 C26         2.5231   -5.3622    8.3396 C.ar      1 <0>        -0.1032
     35 C27         3.1242   -4.6320    7.3302 C.ar      1 <0>        -0.0186
     36 C28         2.7197   -4.8033    6.0180 C.ar      1 <0>        -0.0783
     37 Cl1         4.3904   -3.5063    7.7087 Cl        1 <0>        -0.0749
     38 H2          1.2635    0.8455   -1.0981 H         1 <0>         0.0746
     39 H3         -0.4035    1.4674   -1.1506 H         1 <0>         0.0683
     40 H4          0.4906    1.4466    0.3884 H         1 <0>         0.0708
     41 H5         -1.3167   -0.5794   -2.0848 H         1 <0>         0.1289
     42 H6         -2.1781   -2.8380   -1.6233 H         1 <0>         0.1322
     43 H7         -1.5491   -3.9965    0.4552 H         1 <0>         0.1234
     44 H8          0.4838    0.0719    2.6471 H         1 <0>         0.0785
     45 H9          1.7153   -1.1806    2.3592 H         1 <0>         0.0666
     46 H10         1.6968    0.2948    1.3637 H         1 <0>         0.0693
     47 H11         1.7711   -1.5381    5.8594 H         1 <0>         0.1180
     48 H12         1.9377   -1.2917    8.3015 H         1 <0>         0.1177
     49 H13         0.7727   -2.8723    9.7838 H         1 <0>         0.1159
     50 H14        -0.5641   -4.7058    8.8330 H         1 <0>         0.1208
     51 H15        -0.7496   -4.9614    6.3932 H         1 <0>         0.1273
     52 H16        -1.4340   -7.6121    2.2799 H         1 <0>         0.1357
     53 H17        -1.4852   -5.8862    2.6992 H         1 <0>         0.0979
     54 H18         1.0072   -5.3765   -0.6501 H         1 <0>         0.0840
     55 H19         1.3611   -3.7840    0.0620 H         1 <0>         0.0762
     56 H20         0.3189   -7.1245    6.4922 H         1 <0>         0.1354
     57 H21         1.0454   -6.8286    8.8257 H         1 <0>         0.1290
     58 H22         2.8411   -5.2319    9.3635 H         1 <0>         0.1272
     59 H23         3.1917   -4.2368    5.2290 H         1 <0>         0.1307
@<TRIPOS>BOND
     1    1    2 1
     2    1   38 1
     3    1   39 1
     4    1   40 1
     5    2    7 ar
     6    2    3 ar
     7    3    4 ar
     8    3   41 1
     9    4    5 ar
    10    4   42 1
    11    5    6 ar
    12    5   43 1
    13    6    7 ar
    14    6    9 1
    15    7    8 1
    16    8   44 1
    17    8   45 1
    18    8   46 1
    19    9   13 1
    20    9   10 1
    21   10   26 1
    22   10   11 2
    23   11   12 1
    24   11   20 1
    25   12   13 2
    26   12   14 1
    27   14   19 ar
    28   14   15 ar
    29   15   16 ar
    30   15   47 1
    31   16   17 ar
    32   16   48 1
    33   17   18 ar
    34   17   49 1
    35   18   19 ar
    36   18   50 1
    37   19   51 1
    38   20   21 1
    39   20   22 1
    40   20   31 1
    41   22   23 1
    42   23   24 1
    43   23   52 1
    44   23   53 1
    45   24   25 2
    46   24   26 am
    47   26   27 1
    48   27   28 1
    49   27   54 1
    50   27   55 1
    51   28   29 2
    52   28   30 1
    53   31   36 ar
    54   31   32 ar
    55   32   33 ar
    56   32   56 1
    57   33   34 ar
    58   33   57 1
    59   34   35 ar
    60   34   58 1
    61   35   36 ar
    62   35   37 1
    63   36   59 1
@<TRIPOS>MOLECULE
ZINC13280327
   50    52     0     0     0
SMALL
USER_CHARGES

@<TRIPOS>ATOM
      1 C1         -0.0187    1.5258    0.0104 C.3       1 <0>        -0.1457
      2 C2          0.0021   -0.0041    0.0020 C.3       1 <0>        -0.1298
      3 H1         -1.0205   -0.3814    0.0098 H         1 <0>         0.1324
      4 C3          0.7074   -0.4901   -1.2379 C.2       1 <0>         0.4223
      5 O1          1.8883   -0.7627   -1.1961 O.2       1 <0>        -0.4291
      6 C4         -0.0365   -0.6337   -2.4988 C.ar      1 <0>        -0.1477
      7 C5         -1.3975   -0.3146   -2.5521 C.ar      1 <0>        -0.0621
      8 C6         -2.0879   -0.4513   -3.7372 C.ar      1 <0>        -0.1002
      9 C7         -1.4374   -0.9038   -4.8735 C.ar      1 <0>        -0.0597
     10 C8         -0.0899   -1.2217   -4.8283 C.ar      1 <0>        -0.1046
     11 C9          0.6149   -1.0846   -3.6517 C.ar      1 <0>        -0.0521
     12 Br1        -2.3939   -1.0890   -6.4942 Br        1 <0>        -0.0407
     13 S1          0.8794   -0.6050    1.4716 S.3       1 <0>         0.0233
     14 C10        -0.1356   -0.0870    2.8155 C.2       1 <0>         0.3472
     15 N1         -1.2375    0.5697    2.5490 N.2       1 <0>        -0.5116
     16 C11        -2.0635    0.9973    3.5328 C.ar      1 <0>         0.1362
     17 C12        -3.2390    1.6973    3.2457 C.ar      1 <0>        -0.0717
     18 C13        -4.0564    2.1162    4.2888 C.ar      1 <0>        -0.0878
     19 C14        -3.7084    1.8415    5.6184 C.ar      1 <0>        -0.0935
     20 C15        -2.5625    1.1589    5.9100 C.ar      1 <0>        -0.0636
     21 C16        -1.7283    0.7285    4.8788 C.ar      1 <0>        -0.1990
     22 C17        -0.4845   -0.0111    5.1490 C.2       1 <0>         0.5581
     23 O2         -0.1413   -0.2736    6.2866 O.2       1 <0>        -0.5112
     24 N2          0.2602   -0.3934    4.0860 N.am      1 <0>        -0.5266
     25 C18         1.5041   -1.1371    4.3001 C.3       1 <0>         0.0954
     26 C19         2.6673   -0.1541    4.4467 C.3       1 <0>        -0.1113
     27 C20         2.4722    0.6816    5.7134 C.3       1 <0>        -0.1430
     28 C21         3.9819   -0.9306    4.5455 C.3       1 <0>        -0.1421
     29 C22        -5.3011    2.8569    3.9940 C.2       1 <0>         0.5196
     30 O3         -5.6084    3.0992    2.8358 O.co2     1 <0>        -0.6775
     31 O4         -6.0232    3.2273    4.9083 O.co2     1 <0>        -0.6773
     32 H2          1.0039    1.9031    0.0027 H         1 <0>         0.0684
     33 H3         -0.5459    1.8868   -0.8726 H         1 <0>         0.0745
     34 H4         -0.5289    1.8773    0.9072 H         1 <0>         0.0978
     35 H5         -1.9060    0.0376   -1.6669 H         1 <0>         0.1483
     36 H6         -3.1386   -0.2053   -3.7799 H         1 <0>         0.1444
     37 H7          0.4106   -1.5742   -5.7180 H         1 <0>         0.1408
     38 H8          1.6665   -1.3285   -3.6190 H         1 <0>         0.1449
     39 H9         -3.5095    1.9112    2.2222 H         1 <0>         0.1437
     40 H10        -4.3524    2.1730    6.4196 H         1 <0>         0.1385
     41 H11        -2.3026    0.9526    6.9377 H         1 <0>         0.1313
     42 H12         1.4179   -1.7359    5.2069 H         1 <0>         0.1022
     43 H13         1.6870   -1.7921    3.4482 H         1 <0>         0.0942
     44 H14         2.6984    0.5041    3.5785 H         1 <0>         0.0796
     45 H15         3.3009    1.3819    5.8179 H         1 <0>         0.0533
     46 H16         1.5357    1.2348    5.6431 H         1 <0>         0.0508
     47 H17         2.4411    0.0234    6.5817 H         1 <0>         0.0625
     48 H18         4.1209   -1.5260    3.6430 H         1 <0>         0.0592
     49 H19         4.8106   -0.2303    4.6499 H         1 <0>         0.0613
     50 H20         3.9508   -1.5888    5.4137 H         1 <0>         0.0577
@<TRIPOS>BOND
     1    1    2 1
     2    1   32 1
     3    1   33 1
     4    1   34 1
     5    2    3 1
     6    2    4 1
     7    2   13 1
     8    4    5 2
     9    4    6 1
    10    6   11 ar
    11    6    7 ar
    12    7    8 ar
    13    7   35 1
    14    8    9 ar
    15    8   36 1
    16    9   10 ar
    17    9   12 1
    18   10   11 ar
    19   10   37 1
    20   11   38 1
    21   13   14 1
    22   14   24 1
    23   14   15 2
    24   15   16 1
    25   16   21 ar
    26   16   17 ar
    27   17   18 ar
    28   17   39 1
    29   18   19 ar
    30   18   29 1
    31   19   20 ar
    32   19   40 1
    33   20   21 ar
    34   20   41 1
    35   21   22 1
    36   22   23 2
    37   22   24 am
    38   24   25 1
    39   25   26 1
    40   25   42 1
    41   25   43 1
    42   26   27 1
    43   26   28 1
    44   26   44 1
    45   27   45 1
    46   27   46 1
    47   27   47 1
    48   28   48 1
    49   28   49 1
    50   28   50 1
    51   29   30 2
    52   29   31 1
@<TRIPOS>MOLECULE
ZINC59135668
   50    53     0     0     0
SMALL
USER_CHARGES

@<TRIPOS>ATOM
      1 C1          0.2148   -5.2034   -3.3942 C.3       1 <0>        -0.1142
      2 C2          0.6409   -6.1655   -2.3154 C.ar      1 <0>        -0.0917
      3 C3          1.2383   -7.3651   -2.6555 C.ar      1 <0>        -0.1116
      4 C4          1.6290   -8.2475   -1.6661 C.ar      1 <0>        -0.1188
      5 C5          1.4229   -7.9304   -0.3362 C.ar      1 <0>        -0.0984
      6 C6          0.8265   -6.7309    0.0038 C.ar      1 <0>        -0.0907
      7 C7          0.4395   -5.8463   -0.9858 C.ar      1 <0>        -0.0950
      8 C8          0.6013   -6.3855    1.4533 C.3       1 <0>         0.1006
      9 O1          1.7412   -5.6878    1.9593 O.3       1 <0>        -0.3006
     10 C9          1.7001   -5.3021    3.2583 C.ar      1 <0>         0.1740
     11 C10         0.5900   -5.5919    4.0366 C.ar      1 <0>        -0.2290
     12 C11         0.5487   -5.1988    5.3596 C.ar      1 <0>        -0.0278
     13 C12         1.6141   -4.5109    5.9242 C.ar      1 <0>        -0.1425
     14 C13         2.7267   -4.2121    5.1712 C.ar      1 <0>         0.0790
     15 C14         2.7873   -4.6101    3.8262 C.ar      1 <0>        -0.1107
     16 C15         3.9317   -4.3124    3.0441 C.2       1 <0>         0.0744
     17 C16         5.1985   -4.5747    3.5416 C.2       1 <0>        -0.2521
     18 C17         5.3944   -5.3542    4.7741 C.2       1 <0>         0.4945
     19 O2          4.3379   -5.8393    5.4595 O.3       1 <0>        -0.6152
     20 N1          6.6294   -5.5689    5.1942 N.2       1 <0>        -0.6563
     21 C18         7.6899   -5.1034    4.5387 C.2       1 <0>         0.6684
     22 O3          8.7960   -5.3436    4.9892 O.2       1 <0>        -0.5612
     23 N2          7.6082   -4.3848    3.4095 N.am      1 <0>        -0.5519
     24 C19         6.4125   -4.0898    2.8557 C.2       1 <0>         0.5676
     25 O4          6.3380   -3.4423    1.8282 O.2       1 <0>        -0.5162
     26 C20         8.7839   -3.9375    2.7903 C.ar      1 <0>         0.1460
     27 C21         9.3436   -2.7213    3.1578 C.ar      1 <0>        -0.0725
     28 C22        10.5020   -2.2826    2.5471 C.ar      1 <0>        -0.1447
     29 C23        11.1051   -3.0547    1.5685 C.ar      1 <0>         0.0939
     30 C24        10.5483   -4.2681    1.2006 C.ar      1 <0>        -0.1448
     31 C25         9.3931   -4.7128    1.8130 C.ar      1 <0>        -0.0733
     32 F1         12.2377   -2.6235    0.9716 F         1 <0>        -0.1426
     33 Br1         1.5361   -3.9809    7.7377 Br        1 <0>        -0.0609
     34 H1          1.0371   -4.5250   -3.6215 H         1 <0>         0.0717
     35 H2         -0.0554   -5.7601   -4.2915 H         1 <0>         0.0656
     36 H3         -0.6454   -4.6293   -3.0500 H         1 <0>         0.0661
     37 H4          1.3993   -7.6128   -3.6943 H         1 <0>         0.1223
     38 H5          2.0950   -9.1848   -1.9318 H         1 <0>         0.1248
     39 H6          1.7275   -8.6203    0.4369 H         1 <0>         0.1252
     40 H7         -0.0231   -4.9073   -0.7200 H         1 <0>         0.1241
     41 H8         -0.2815   -5.7525    1.5431 H         1 <0>         0.0733
     42 H9          0.4519   -7.3008    2.0259 H         1 <0>         0.0741
     43 H10        -0.2446   -6.1259    3.6070 H         1 <0>         0.1327
     44 H11        -0.3194   -5.4280    5.9597 H         1 <0>         0.1298
     45 H12         3.5530   -3.6768    5.6151 H         1 <0>         0.1349
     46 H13         3.8164   -3.8814    2.0606 H         1 <0>         0.1389
     47 H14         8.8731   -2.1185    3.9205 H         1 <0>         0.1326
     48 H15        10.9377   -1.3365    2.8328 H         1 <0>         0.1383
     49 H16        11.0201   -4.8689    0.4371 H         1 <0>         0.1380
     50 H17         8.9615   -5.6612    1.5288 H         1 <0>         0.1319
@<TRIPOS>BOND
     1    1    2 1
     2    1   34 1
     3    1   35 1
     4    1   36 1
     5    2    7 ar
     6    2    3 ar
     7    3    4 ar
     8    3   37 1
     9    4    5 ar
    10    4   38 1
    11    5    6 ar
    12    5   39 1
    13    6    7 ar
    14    6    8 1
    15    7   40 1
    16    8    9 1
    17    8   41 1
    18    8   42 1
    19    9   10 1
    20   10   15 ar
    21   10   11 ar
    22   11   12 ar
    23   11   43 1
    24   12   13 ar
    25   12   44 1
    26   13   14 ar
    27   13   33 1
    28   14   15 ar
    29   14   45 1
    30   15   16 1
    31   16   17 2
    32   16   46 1
    33   17   24 1
    34   17   18 1
    35   18   19 1
    36   18   20 2
    37   20   21 1
    38   21   22 2
    39   21   23 am
    40   23   24 am
    41   23   26 1
    42   24   25 2
    43   26   31 ar
    44   26   27 ar
    45   27   28 ar
    46   27   47 1
    47   28   29 ar
    48   28   48 1
    49   29   30 ar
    50   29   32 1
    51   30   31 ar
    52   30   49 1
    53   31   50 1
@<TRIPOS>MOLECULE
ZINC09237868
   42    44     0     0     0
SMALL
USER_CHARGES
5-[[8-(4-bromo-2-chloro-phenyl)-3,3-dioxo-3$l^{6},6-dithia-8-azabicyclo[3.3.0]oct-7-ylidene]amino]-5-oxo-pentanoic acid
@<TRIPOS>ATOM
      1 C1         -4.1549    1.1250    4.2858 C.ar      1 <0>        -0.0755
      2 C2         -3.4557    1.6207    3.2023 C.ar      1 <0>        -0.0779
      3 C3         -2.7918    0.7501    2.3488 C.ar      1 <0>         0.1653
      4 C4         -2.8370   -0.6191    2.5843 C.ar      1 <0>        -0.0263
      5 C5         -3.5341   -1.1085    3.6723 C.ar      1 <0>        -0.0752
      6 C6         -4.1947   -0.2376    4.5209 C.ar      1 <0>        -0.0713
      7 Br1        -5.1531   -0.9114    6.0053 Br        1 <0>        -0.0267
      8 Cl1        -2.0139   -1.7123    1.5161 Cl        1 <0>        -0.0424
      9 N1         -2.0830    1.2496    1.2502 N.pl3     1 <0>        -0.5502
     10 C7         -0.6823    1.6178    1.3305 C.3       1 <0>         0.1372
     11 H1         -0.6124    2.7055    1.3441 H         1 <0>         0.1235
     12 C8          0.1681    1.0378    2.4732 C.3       1 <0>        -0.5779
     13 S1          1.8611    1.1509    1.7315 S.o2      1 <0>         2.3654
     14 O1          2.4476   -0.1433    1.7145 O.2       1 <0>        -0.9117
     15 O2          2.5621    2.2296    2.3352 O.2       1 <0>        -0.9151
     16 C9          1.3916    1.6272   -0.0025 C.3       1 <0>        -0.5221
     17 C10        -0.0127    1.0858    0.0080 C.3       1 <0>        -0.1720
     18 H2          0.0021   -0.0041    0.0020 H         1 <0>         0.1318
     19 S2         -1.2728    1.7023   -1.1309 S.3       1 <0>         0.0013
     20 C11        -2.6711    1.4292    0.0025 C.2       1 <0>         0.4920
     21 N2         -3.9648    1.4050   -0.2970 N.2       1 <0>        -0.5730
     22 C12        -4.3607    1.5972   -1.5528 C.2       1 <0>         0.4877
     23 O3         -3.5383    1.7950   -2.4259 O.2       1 <0>        -0.4941
     24 C13        -5.8286    1.5698   -1.8926 C.3       1 <0>        -0.1151
     25 C14        -6.0098    1.8162   -3.3917 C.3       1 <0>        -0.0874
     26 C15        -7.5001    1.7884   -3.7367 C.3       1 <0>        -0.1574
     27 C16        -7.6785    2.0311   -5.2133 C.2       1 <0>         0.4581
     28 O4         -6.7128    2.2083   -5.9174 O.co2     1 <0>        -0.6384
     29 H3         -4.6715    1.8022    4.9498 H         1 <0>         0.1489
     30 H4         -3.4259    2.6846    3.0192 H         1 <0>         0.1489
     31 H5         -3.5668   -2.1719    3.8583 H         1 <0>         0.1515
     32 H6         -0.1031    0.0025    2.6796 H         1 <0>         0.1486
     33 H7          0.0904    1.6492    3.3722 H         1 <0>         0.1590
     34 H8          2.0130    1.1214   -0.7416 H         1 <0>         0.1603
     35 H9          1.4057    2.7082   -0.1413 H         1 <0>         0.1567
     36 H10        -6.2438    0.5963   -1.6317 H         1 <0>         0.0951
     37 H11        -6.3461    2.3477   -1.3313 H         1 <0>         0.0958
     38 H12        -5.5946    2.7897   -3.6526 H         1 <0>         0.0669
     39 H13        -5.4923    1.0382   -3.9530 H         1 <0>         0.0672
     40 H14        -7.9153    0.8149   -3.4758 H         1 <0>         0.0637
     41 H15        -8.0176    2.5664   -3.1754 H         1 <0>         0.0637
     42 O5         -8.9104    2.0506   -5.7462 O.co2     1 <0>        -0.7791
@<TRIPOS>BOND
     1    1    6 ar
     2    1    2 ar
     3    1   29 1
     4    2    3 ar
     5    2   30 1
     6    3    4 ar
     7    3    9 1
     8    4    5 ar
     9    4    8 1
    10    5    6 ar
    11    5   31 1
    12    6    7 1
    13    9   20 1
    14    9   10 1
    15   10   11 1
    16   10   17 1
    17   10   12 1
    18   12   13 1
    19   12   32 1
    20   12   33 1
    21   13   14 2
    22   13   15 2
    23   13   16 1
    24   16   17 1
    25   16   34 1
    26   16   35 1
    27   17   18 1
    28   17   19 1
    29   19   20 1
    30   20   21 2
    31   21   22 1
    32   22   23 2
    33   22   24 1
    34   24   25 1
    35   24   36 1
    36   24   37 1
    37   25   26 1
    38   25   38 1
    39   25   39 1
    40   26   27 1
    41   26   40 1
    42   26   41 1
    43   27   28 2
    44   27   42 1
@<TRIPOS>MOLECULE
ZINC16913678
   44    46     0     0     0
SMALL
USER_CHARGES
(2S)-2-[4-[(E)-[3-(3-bromophenyl)-4-oxo-2-thioxo-thiazolidin-5-ylidene]methyl]-2-methoxy-phenoxy]propanoic acid
@<TRIPOS>ATOM
      1 C1         -0.9286    0.1491   -0.9545 C.3       1 <0>        -0.1549
      2 C2         -2.2928   -0.2199   -0.3683 C.3       1 <0>         0.0320
      3 H1         -2.4625    0.3509    0.5446 H         1 <0>         0.0766
      4 C3         -3.3729    0.1004   -1.3692 C.2       1 <0>         0.4733
      5 O1         -4.0924   -0.7774   -1.7833 O.co2     1 <0>        -0.6108
      6 O2         -2.3203   -1.6169   -0.0686 O.3       1 <0>        -0.2646
      7 C4         -1.8474   -1.9963    1.1472 C.ar      1 <0>         0.1608
      8 C5         -1.2688   -1.0557    1.9890 C.ar      1 <0>        -0.1973
      9 C6         -0.7926   -1.4328    3.2253 C.ar      1 <0>        -0.0258
     10 C7         -0.8812   -2.7702    3.6308 C.ar      1 <0>        -0.1378
     11 C8         -1.4598   -3.7187    2.7786 C.ar      1 <0>        -0.1315
     12 C9         -1.9396   -3.3299    1.5434 C.ar      1 <0>         0.0793
     13 O3         -2.5017   -4.2484    0.7128 O.3       1 <0>        -0.2960
     14 C10        -2.5633   -5.5965    1.1830 C.3       1 <0>         0.0262
     15 C11        -0.3686   -3.1767    4.9454 C.2       1 <0>         0.1283
     16 C12        -0.6030   -2.4012    6.0348 C.2       1 <0>        -0.2654
     17 C13        -1.4519   -1.2011    6.1706 C.2       1 <0>         0.5307
     18 O4         -2.0806   -0.7528    5.2297 O.2       1 <0>        -0.4231
     19 N1         -1.4952   -0.6379    7.3663 N.am      1 <0>        -0.4801
     20 C14        -0.7974   -1.1381    8.4063 C.2       1 <0>         0.2828
     21 S1         -0.7234   -0.5569   10.0150 S.2       1 <0>        -0.3348
     22 S2          0.0254   -2.5572    7.7010 S.3       1 <0>         0.0743
     23 C15        -2.2843    0.5041    7.5572 C.ar      1 <0>         0.1035
     24 C16        -3.5798    0.3815    8.0422 C.ar      1 <0>        -0.0691
     25 C17        -4.3538    1.5090    8.2344 C.ar      1 <0>        -0.0996
     26 C18        -3.8440    2.7589    7.9341 C.ar      1 <0>        -0.0678
     27 C19        -2.5557    2.8844    7.4458 C.ar      1 <0>        -0.0809
     28 C20        -1.7747    1.7597    7.2564 C.ar      1 <0>        -0.0568
     29 Br1        -1.8629    4.5957    7.0366 Br        1 <0>        -0.0329
     30 H2         -0.9076    1.2147   -1.1831 H         1 <0>         0.0806
     31 H3         -0.1474   -0.0826   -0.2305 H         1 <0>         0.0492
     32 H4         -0.7589   -0.4217   -1.8674 H         1 <0>         0.0618
     33 H5         -1.1957   -0.0249    1.6752 H         1 <0>         0.1438
     34 H6         -0.3473   -0.6982    3.8799 H         1 <0>         0.1207
     35 H7         -1.5303   -4.7515    3.0863 H         1 <0>         0.1379
     36 H8         -1.5545   -5.9589    1.3805 H         1 <0>         0.0517
     37 H9         -3.1493   -5.6345    2.1013 H         1 <0>         0.0512
     38 H10        -3.0332   -6.2242    0.4259 H         1 <0>         0.0998
     39 H11         0.1948   -4.0926    5.0457 H         1 <0>         0.1577
     40 H12        -3.9804   -0.5947    8.2728 H         1 <0>         0.1334
     41 H13        -5.3598    1.4141    8.6155 H         1 <0>         0.1454
     42 H14        -4.4529    3.6388    8.0808 H         1 <0>         0.1433
     43 H15        -0.7692    1.8578    6.8745 H         1 <0>         0.1362
     44 O5         -3.5357    1.3611   -1.8005 O.co2     1 <0>        -0.7512
@<TRIPOS>BOND
     1    1    2 1
     2    1   30 1
     3    1   31 1
     4    1   32 1
     5    2    3 1
     6    2    4 1
     7    2    6 1
     8    4    5 2
     9    4   44 1
    10    6    7 1
    11    7   12 ar
    12    7    8 ar
    13    8    9 ar
    14    8   33 1
    15    9   10 ar
    16    9   34 1
    17   10   11 ar
    18   10   15 1
    19   11   12 ar
    20   11   35 1
    21   12   13 1
    22   13   14 1
    23   14   36 1
    24   14   37 1
    25   14   38 1
    26   15   16 2
    27   15   39 1
    28   16   22 1
    29   16   17 1
    30   17   18 2
    31   17   19 am
    32   19   20 1
    33   19   23 1
    34   20   21 2
    35   20   22 1
    36   23   28 ar
    37   23   24 ar
    38   24   25 ar
    39   24   40 1
    40   25   26 ar
    41   25   41 1
    42   26   27 ar
    43   26   42 1
    44   27   28 ar
    45   27   29 1
    46   28   43 1
@<TRIPOS>MOLECULE
ZINC35025219
   53    57     0     0     0
SMALL
USER_CHARGES

@<TRIPOS>ATOM
      1 C1          0.0552    1.3766   -0.0215 C.ar      1 <0>        -0.1016
      2 C2          1.2534    2.0660   -0.0049 C.ar      1 <0>        -0.1035
      3 C3          2.4486    1.3737    0.0664 C.ar      1 <0>        -0.0379
      4 C4          2.4441   -0.0101    0.1212 C.ar      1 <0>        -0.0310
      5 C5          1.2444   -0.6981    0.1045 C.ar      1 <0>        -0.0596
      6 C6          0.0507   -0.0045    0.0331 C.ar      1 <0>        -0.0589
      7 C7         -1.2562   -0.7546    0.0154 C.3       1 <0>         0.2645
      8 H1         -2.0717   -0.0799   -0.2454 H         1 <0>         0.0759
      9 C8         -1.5131   -1.3826    1.3653 C.2       1 <0>        -0.5107
     10 C9         -1.6596   -0.6791    2.6435 C.2       1 <0>         0.5065
     11 C10        -2.8118    0.2164    2.8653 C.ar      1 <0>        -0.1322
     12 C11        -3.8281    0.3013    1.9090 C.ar      1 <0>        -0.0576
     13 C12        -4.9011    1.1382    2.1184 C.ar      1 <0>        -0.1298
     14 C13        -4.9798    1.9001    3.2791 C.ar      1 <0>         0.0623
     15 C14        -3.9716    1.8182    4.2373 C.ar      1 <0>         0.0318
     16 C15        -2.8930    0.9777    4.0345 C.ar      1 <0>        -0.0659
     17 O1         -4.0382    2.5518    5.3822 O.3       1 <0>        -0.3073
     18 C16        -4.9479    3.6573    5.3859 C.3       1 <0>         0.0210
     19 C17        -6.2833    3.1823    4.7975 C.3       1 <0>         0.0202
     20 O2         -6.0470    2.7220    3.4628 O.3       1 <0>        -0.3079
     21 O3         -0.8311   -0.8336    3.5216 O.2       1 <0>        -0.4697
     22 C18        -1.5820   -2.7196    1.1674 C.2       1 <0>         0.2703
     23 O4         -1.8015   -3.6444    2.1303 O.3       1 <0>        -0.6487
     24 C19        -1.3802   -3.0090   -0.2678 C.2       1 <0>         0.5164
     25 O5         -1.3863   -4.1185   -0.7629 O.2       1 <0>        -0.5192
     26 N1         -1.1894   -1.8623   -0.9451 N.am      1 <0>        -0.6115
     27 C20        -0.9560   -1.7408   -2.3863 C.3       1 <0>         0.1279
     28 C21         0.5467   -1.8045   -2.6668 C.3       1 <0>         0.0535
     29 H2          1.0660   -1.0537   -2.0712 H         1 <0>         0.0860
     30 C22         0.8103   -1.5566   -4.1676 C.3       1 <0>        -0.1480
     31 C23         1.9521   -2.5642   -4.4726 C.3       1 <0>        -0.1545
     32 C24         1.5709   -3.7344   -3.5312 C.3       1 <0>         0.0505
     33 O6          1.0458   -3.1085   -2.3474 O.3       1 <0>        -0.3552
     34 Cl1         3.9434   -0.8807    0.2102 Cl        1 <0>        -0.0564
     35 Cl2         3.9535    2.2387    0.0868 Cl        1 <0>        -0.0645
     36 H3         -0.8781    1.9178   -0.0727 H         1 <0>         0.1366
     37 H4          1.2562    3.1451   -0.0480 H         1 <0>         0.1376
     38 H5          1.2402   -1.7773    0.1468 H         1 <0>         0.1436
     39 H6         -3.7714   -0.2890    1.0064 H         1 <0>         0.1453
     40 H7         -5.6850    1.2029    1.3784 H         1 <0>         0.1355
     41 H8         -2.1120    0.9119    4.7776 H         1 <0>         0.1413
     42 H9         -5.0995    4.0052    6.4077 H         1 <0>         0.1186
     43 H10        -4.5451    4.4669    4.7773 H         1 <0>         0.0750
     44 H11        -6.6822    2.3677    5.4018 H         1 <0>         0.0766
     45 H12        -6.9926    4.0098    4.7808 H         1 <0>         0.1190
     46 H13        -1.4575   -2.5574   -2.9056 H         1 <0>         0.0829
     47 H14        -1.3515   -0.7884   -2.7394 H         1 <0>         0.0830
     48 H15        -0.0761   -1.7838   -4.7599 H         1 <0>         0.0775
     49 H16         1.1407   -0.5322   -4.3394 H         1 <0>         0.0800
     50 H17         1.9315   -2.8771   -5.5165 H         1 <0>         0.0790
     51 H18         2.9242   -2.1480   -4.2082 H         1 <0>         0.0761
     52 H19         0.8112   -4.3623   -3.9967 H         1 <0>         0.0574
     53 H20         2.4532   -4.3255   -3.2860 H         1 <0>         0.0802
@<TRIPOS>BOND
     1    1    6 ar
     2    1    2 ar
     3    1   36 1
     4    2    3 ar
     5    2   37 1
     6    3    4 ar
     7    3   35 1
     8    4    5 ar
     9    4   34 1
    10    5    6 ar
    11    5   38 1
    12    6    7 1
    13    7    9 1
    14    7   26 1
    15    7    8 1
    16    9   22 2
    17    9   10 1
    18   10   21 2
    19   10   11 1
    20   11   16 ar
    21   11   12 ar
    22   12   13 ar
    23   12   39 1
    24   13   14 ar
    25   13   40 1
    26   14   20 1
    27   14   15 ar
    28   15   16 ar
    29   15   17 1
    30   16   41 1
    31   17   18 1
    32   18   19 1
    33   18   42 1
    34   18   43 1
    35   19   20 1
    36   19   44 1
    37   19   45 1
    38   22   24 1
    39   22   23 1
    40   24   26 am
    41   24   25 2
    42   26   27 1
    43   27   28 1
    44   27   46 1
    45   27   47 1
    46   28   29 1
    47   28   33 1
    48   28   30 1
    49   30   31 1
    50   30   48 1
    51   30   49 1
    52   31   32 1
    53   31   50 1
    54   31   51 1
    55   32   33 1
    56   32   52 1
    57   32   53 1
@<TRIPOS>MOLECULE
ZINC09187565
   55    59     0     0     0
SMALL
USER_CHARGES

@<TRIPOS>ATOM
      1 C1         -1.5840    2.0287    1.0881 C.3       1 <0>        -0.0884
      2 C2         -1.1229    0.6237    0.7973 C.2       1 <0>         0.2109
      3 C3         -0.8810    0.1827   -0.5028 C.2       1 <0>        -0.3876
      4 S1         -0.3804   -1.5026   -0.1893 S.3       1 <0>         0.2183
      5 C4         -0.5219   -1.4801    1.4875 C.2       1 <0>         0.3260
      6 N1         -0.9222   -0.2475    1.7499 N.2       1 <0>        -0.5658
      7 N2         -0.2737   -2.5049    2.3789 N.am      1 <0>        -0.5019
      8 C5         -0.4188   -2.4348    3.8377 C.3       1 <0>         0.2667
      9 H1          0.2470   -1.6737    4.2444 H         1 <0>         0.0935
     10 C6         -0.0339   -3.7975    4.3648 C.2       1 <0>        -0.4818
     11 C7         -0.0195   -4.2201    5.7686 C.2       1 <0>         0.5116
     12 C8          0.9328   -3.6060    6.7146 C.ar      1 <0>        -0.1634
     13 C9          1.8563   -2.6556    6.2679 C.ar      1 <0>        -0.0261
     14 C10         2.7391   -2.0814    7.1508 C.ar      1 <0>        -0.1515
     15 C11         2.7246   -2.4408    8.5001 C.ar      1 <0>         0.1217
     16 C12         1.8082   -3.3935    8.9376 C.ar      1 <0>        -0.1906
     17 C13         0.9149   -3.9656    8.0665 C.ar      1 <0>        -0.0203
     18 C14         2.0479   -3.5900   10.4223 C.3       1 <0>        -0.1029
     19 C15         3.4362   -2.9341   10.6112 C.3       1 <0>         0.0764
     20 H2          3.4938   -2.4222   11.5718 H         1 <0>         0.1134
     21 O1          3.4935   -1.9912    9.5276 O.3       1 <0>        -0.3005
     22 C16         4.5493   -3.9764   10.4873 C.3       1 <0>        -0.1718
     23 O2         -0.7928   -5.0773    6.1540 O.2       1 <0>        -0.4677
     24 C17         0.2949   -4.5531    3.2905 C.2       1 <0>         0.2711
     25 O3          0.6974   -5.8442    3.3338 O.3       1 <0>        -0.6309
     26 C18         0.1384   -3.7462    2.0634 C.2       1 <0>         0.5118
     27 O4          0.3528   -4.1439    0.9356 O.2       1 <0>        -0.4800
     28 C19        -1.8475   -2.1229    4.2019 C.ar      1 <0>        -0.0947
     29 C20        -2.8729   -2.4806    3.3469 C.ar      1 <0>        -0.0739
     30 C21        -4.1833   -2.1947    3.6807 C.ar      1 <0>        -0.1268
     31 C22        -4.4701   -1.5506    4.8701 C.ar      1 <0>        -0.0980
     32 C23        -3.4467   -1.1925    5.7267 C.ar      1 <0>        -0.1528
     33 C24        -2.1338   -1.4831    5.3957 C.ar      1 <0>         0.1121
     34 F1         -1.1328   -1.1377    6.2346 F         1 <0>        -0.1335
     35 C25        -0.9994    0.8743   -1.7249 C.2       1 <0>         0.4472
     36 O5         -1.3612    2.0340   -1.7340 O.2       1 <0>        -0.4719
     37 C26        -0.6772    0.1754   -3.0205 C.3       1 <0>        -0.1996
     38 H3         -0.7169    2.6732    1.2322 H         1 <0>         0.0823
     39 H4         -2.1757    2.3976    0.2503 H         1 <0>         0.0940
     40 H5         -2.1930    2.0314    1.9921 H         1 <0>         0.0758
     41 H6          1.8760   -2.3724    5.2259 H         1 <0>         0.1379
     42 H7          3.4489   -1.3475    6.7987 H         1 <0>         0.1287
     43 H8          0.2029   -4.6952    8.4230 H         1 <0>         0.1314
     44 H9          1.2897   -3.0736   11.0111 H         1 <0>         0.0887
     45 H10         2.0802   -4.6499   10.6749 H         1 <0>         0.0909
     46 H11         4.5087   -4.4357    9.4997 H         1 <0>         0.0652
     47 H12         5.5167   -3.4928   10.6236 H         1 <0>         0.0662
     48 H13         4.4157   -4.7431   11.2504 H         1 <0>         0.0740
     49 H14        -2.6500   -2.9834    2.4174 H         1 <0>         0.1157
     50 H15        -4.9838   -2.4742    3.0118 H         1 <0>         0.1242
     51 H16        -5.4944   -1.3271    5.1296 H         1 <0>         0.1280
     52 H17        -3.6710   -0.6891    6.6556 H         1 <0>         0.1321
     53 H18        -1.3332   -0.6867   -3.1412 H         1 <0>         0.0904
     54 H19        -0.8261    0.8644   -3.8519 H         1 <0>         0.0854
     55 H20         0.3607   -0.1572   -3.0056 H         1 <0>         0.0906
@<TRIPOS>BOND
     1    1    2 1
     2    1   38 1
     3    1   39 1
     4    1   40 1
     5    2    6 1
     6    2    3 2
     7    3    4 1
     8    3   35 1
     9    4    5 1
    10    5    6 2
    11    5    7 1
    12    7   26 am
    13    7    8 1
    14    8   10 1
    15    8   28 1
    16    8    9 1
    17   10   24 2
    18   10   11 1
    19   11   23 2
    20   11   12 1
    21   12   17 ar
    22   12   13 ar
    23   13   14 ar
    24   13   41 1
    25   14   15 ar
    26   14   42 1
    27   15   21 1
    28   15   16 ar
    29   16   17 ar
    30   16   18 1
    31   17   43 1
    32   18   19 1
    33   18   44 1
    34   18   45 1
    35   19   20 1
    36   19   21 1
    37   19   22 1
    38   22   46 1
    39   22   47 1
    40   22   48 1
    41   24   26 1
    42   24   25 1
    43   26   27 2
    44   28   33 ar
    45   28   29 ar
    46   29   30 ar
    47   29   49 1
    48   30   31 ar
    49   30   50 1
    50   31   32 ar
    51   31   51 1
    52   32   33 ar
    53   32   52 1
    54   33   34 1
    55   35   36 2
    56   35   37 1
    57   37   53 1
    58   37   54 1
    59   37   55 1
@<TRIPOS>MOLECULE
ZINC59198418
   54    57     0     0     0
SMALL
USER_CHARGES

@<TRIPOS>ATOM
      1 C1         -1.4078    0.6042   -2.1612 C.3       1 <0>        -0.1521
      2 C2         -1.2556   -0.8380   -1.6736 C.3       1 <0>         0.0522
      3 O1         -0.0048   -0.9828   -0.9978 O.3       1 <0>        -0.3150
      4 C3          0.2883   -2.2130   -0.4990 C.ar      1 <0>         0.1327
      5 C4         -0.6080   -3.2593   -0.6627 C.ar      1 <0>        -0.1970
      6 C5         -0.3110   -4.5087   -0.1559 C.ar      1 <0>        -0.0660
      7 C6          0.8852   -4.7182    0.5173 C.ar      1 <0>         0.0886
      8 C7          1.7821   -3.6708    0.6804 C.ar      1 <0>        -0.0721
      9 C8          1.4863   -2.4231    0.1687 C.ar      1 <0>        -0.1416
     10 N1          1.1872   -5.9869    1.0326 N.pl3     1 <0>        -0.3929
     11 C9          0.4874   -6.6112    2.0289 C.2       1 <0>        -0.0265
     12 C10         1.0424   -7.8079    2.2777 C.2       1 <0>        -0.0446
     13 C11         2.1830   -7.9361    1.3576 C.2       1 <0>        -0.1704
     14 C12         2.2021   -6.7637    0.6129 C.2       1 <0>         0.0733
     15 C13         3.1892   -6.4205   -0.4729 C.3       1 <0>        -0.0873
     16 C14         3.0727   -9.0287    1.2500 C.2       1 <0>         0.1115
     17 C15         2.5832  -10.3288    1.2803 C.2       1 <0>        -0.2740
     18 C16         1.1444  -10.6100    1.1793 C.2       1 <0>         0.4973
     19 O2          0.2518   -9.6053    1.0534 O.3       1 <0>        -0.6119
     20 N2          0.7439  -11.8703    1.2142 N.2       1 <0>        -0.6666
     21 C17         1.6008  -12.8803    1.3370 C.2       1 <0>         0.6673
     22 O3          1.1552  -14.0140    1.3615 O.2       1 <0>        -0.5711
     23 N3          2.9285  -12.7187    1.4349 N.am      1 <0>        -0.5535
     24 C18         3.4847  -11.4886    1.4089 C.2       1 <0>         0.5677
     25 O4          4.6900  -11.3417    1.4933 O.2       1 <0>        -0.5271
     26 C19         3.7523  -13.8451    1.5613 C.ar      1 <0>         0.1663
     27 C20         4.1741  -14.2610    2.8173 C.ar      1 <0>        -0.0874
     28 C21         4.9861  -15.3714    2.9393 C.ar      1 <0>        -0.1071
     29 C22         5.3795  -16.0695    1.8122 C.ar      1 <0>        -0.0943
     30 C23         4.9615  -15.6576    0.5593 C.ar      1 <0>        -0.0821
     31 C24         4.1437  -14.5506    0.4318 C.ar      1 <0>        -0.0719
     32 Br1         5.5031  -16.6146   -0.9792 Br        1 <0>        -0.0568
     33 C25        -0.7167   -6.0444    2.7359 C.3       1 <0>        -0.0716
     34 H1         -0.5947    0.8438   -2.8464 H         1 <0>         0.0663
     35 H2         -2.3618    0.7146   -2.6767 H         1 <0>         0.0786
     36 H3         -1.3753    1.2816   -1.3079 H         1 <0>         0.0662
     37 H4         -2.0687   -1.0776   -0.9884 H         1 <0>         0.0635
     38 H5         -1.2880   -1.5154   -2.5269 H         1 <0>         0.0635
     39 H6         -1.5384   -3.0963   -1.1863 H         1 <0>         0.1340
     40 H7         -1.0091   -5.3230   -0.2827 H         1 <0>         0.1345
     41 H8          2.7125   -3.8331    1.2042 H         1 <0>         0.1360
     42 H9          2.1858   -1.6095    0.2916 H         1 <0>         0.1372
     43 H10         0.7162   -8.5330    3.0087 H         1 <0>         0.1394
     44 H11         4.0457   -5.9069   -0.0362 H         1 <0>         0.0740
     45 H12         3.5245   -7.3353   -0.9615 H         1 <0>         0.0813
     46 H13         2.7113   -5.7710   -1.2063 H         1 <0>         0.0648
     47 H14         4.1331   -8.8532    1.1442 H         1 <0>         0.1269
     48 H15         3.8676  -13.7163    3.6981 H         1 <0>         0.1282
     49 H16         5.3145  -15.6948    3.9160 H         1 <0>         0.1349
     50 H17         6.0145  -16.9375    1.9102 H         1 <0>         0.1327
     51 H18         3.8132  -14.2322   -0.5459 H         1 <0>         0.1310
     52 H19        -1.6219   -6.3385    2.2046 H         1 <0>         0.0641
     53 H20        -0.7532   -6.4278    3.7556 H         1 <0>         0.0741
     54 H21        -0.6460   -4.9569    2.7590 H         1 <0>         0.0529
@<TRIPOS>BOND
     1    1    2 1
     2    1   34 1
     3    1   35 1
     4    1   36 1
     5    2    3 1
     6    2   37 1
     7    2   38 1
     8    3    4 1
     9    4    9 ar
    10    4    5 ar
    11    5    6 ar
    12    5   39 1
    13    6    7 ar
    14    6   40 1
    15    7    8 ar
    16    7   10 1
    17    8    9 ar
    18    8   41 1
    19    9   42 1
    20   10   14 1
    21   10   11 1
    22   11   12 2
    23   11   33 1
    24   12   13 1
    25   12   43 1
    26   13   14 2
    27   13   16 1
    28   14   15 1
    29   15   44 1
    30   15   45 1
    31   15   46 1
    32   16   17 2
    33   16   47 1
    34   17   24 1
    35   17   18 1
    36   18   19 1
    37   18   20 2
    38   20   21 1
    39   21   22 2
    40   21   23 am
    41   23   24 am
    42   23   26 1
    43   24   25 2
    44   26   31 ar
    45   26   27 ar
    46   27   28 ar
    47   27   48 1
    48   28   29 ar
    49   28   49 1
    50   29   30 ar
    51   29   50 1
    52   30   31 ar
    53   30   32 1
    54   31   51 1
    55   33   52 1
    56   33   53 1
    57   33   54 1
@<TRIPOS>MOLECULE
ZINC13233846
   52    54     0     0     0
SMALL
USER_CHARGES
2-[2-[(2-carboxyphenyl)amino]-2-oxo-ethyl]sulfanyl-3-(3-methoxypropyl)-4-oxo-quinazoline-7-carboxylic acid
@<TRIPOS>ATOM
      1 C1         -0.1376    1.1802   -4.8909 C.3       1 <0>         0.0323
      2 O1         -0.7356    1.5967   -3.6617 O.3       1 <0>        -0.3896
      3 C2         -0.0604    1.1200   -2.4960 C.3       1 <0>         0.0682
      4 C3         -0.7838    1.6243   -1.2456 C.3       1 <0>        -0.1367
      5 C4         -0.0609    1.1139    0.0025 C.3       1 <0>         0.0966
      6 N1         -0.7535    1.5968    1.1997 N.am      1 <0>        -0.5281
      7 C5         -1.7455    0.8562    1.7456 C.2       1 <0>         0.5594
      8 O2         -2.0771   -0.2095    1.2603 O.2       1 <0>        -0.5210
      9 C6         -2.4086    1.3860    2.9478 C.ar      1 <0>        -0.1987
     10 C7         -3.4413    0.6937    3.5795 C.ar      1 <0>        -0.0649
     11 C8         -4.0317    1.2196    4.6925 C.ar      1 <0>        -0.0901
     12 C9         -3.6092    2.4513    5.2095 C.ar      1 <0>        -0.0678
     13 C10        -2.5824    3.1580    4.5963 C.ar      1 <0>        -0.0714
     14 C11        -1.9707    2.6298    3.4558 C.ar      1 <0>         0.1433
     15 N2         -0.9668    3.2836    2.8253 N.2       1 <0>        -0.5089
     16 C12        -0.3888    2.7880    1.7589 C.2       1 <0>         0.3368
     17 S1          0.9150    3.7045    1.0075 S.3       1 <0>         0.0578
     18 C13         0.9738    5.1341    2.1162 C.3       1 <0>        -0.1420
     19 C14         2.0495    6.0834    1.6551 C.2       1 <0>         0.5323
     20 O3          2.7113    5.8195    0.6737 O.2       1 <0>        -0.5321
     21 N3          2.2762    7.2257    2.3335 N.am      1 <0>        -0.6347
     22 C15         3.3300    8.0576    1.9639 C.ar      1 <0>         0.1728
     23 C16         3.6759    8.1931    0.6260 C.ar      1 <0>        -0.1393
     24 C17         4.7174    9.0222    0.2615 C.ar      1 <0>        -0.1090
     25 C18         5.4318    9.7165    1.2249 C.ar      1 <0>        -0.1562
     26 C19         5.1068    9.5902    2.5578 C.ar      1 <0>        -0.0628
     27 C20         4.0515    8.7587    2.9422 C.ar      1 <0>        -0.1401
     28 C21         3.6988    8.6186    4.3663 C.2       1 <0>         0.4926
     29 O4          2.8467    7.8215    4.7056 O.co2     1 <0>        -0.6266
     30 C22        -4.2618    3.0037    6.4170 C.2       1 <0>         0.4883
     31 O5         -3.8993    4.0712    6.8686 O.co2     1 <0>        -0.6167
     32 H1          0.8872    1.5486   -4.9395 H         1 <0>         0.0422
     33 H2         -0.1351    0.0915   -4.9432 H         1 <0>         0.0394
     34 H3         -0.7085    1.5829   -5.7275 H         1 <0>         0.0841
     35 H4          0.9659    1.4871   -2.4949 H         1 <0>         0.0564
     36 H5         -0.0564    0.0300   -2.4986 H         1 <0>         0.0518
     37 H6         -1.8101    1.2572   -1.2467 H         1 <0>         0.0793
     38 H7         -0.7878    2.7143   -1.2430 H         1 <0>         0.0852
     39 H8         -0.0569    0.0239   -0.0002 H         1 <0>         0.1030
     40 H9          0.9654    1.4810    0.0036 H         1 <0>         0.0989
     41 H10        -3.7736   -0.2567    3.1887 H         1 <0>         0.1314
     42 H11        -4.8312    0.6809    5.1793 H         1 <0>         0.1408
     43 H12        -2.2597    4.1075    4.9971 H         1 <0>         0.1475
     44 H13         0.0101    5.6433    2.1038 H         1 <0>         0.1322
     45 H14         1.1947    4.7991    3.1296 H         1 <0>         0.1372
     46 H15         1.7052    7.4684    3.0792 H         1 <0>         0.4286
     47 H16         3.1268    7.6523   -0.1305 H         1 <0>         0.1351
     48 H17         4.9801    9.1272   -0.7808 H         1 <0>         0.1159
     49 H18         6.2476   10.3595    0.9293 H         1 <0>         0.1149
     50 H19         5.6673   10.1329    3.3047 H         1 <0>         0.1321
     51 O6          4.3213    9.3744    5.2921 O.co2     1 <0>        -0.7496
     52 O7         -5.2578    2.3226    7.0154 O.co2     1 <0>        -0.7502
@<TRIPOS>BOND
     1    1    2 1
     2    1   32 1
     3    1   33 1
     4    1   34 1
     5    2    3 1
     6    3    4 1
     7    3   35 1
     8    3   36 1
     9    4    5 1
    10    4   37 1
    11    4   38 1
    12    5    6 1
    13    5   39 1
    14    5   40 1
    15    6   16 1
    16    6    7 am
    17    7    8 2
    18    7    9 1
    19    9   14 ar
    20    9   10 ar
    21   10   11 ar
    22   10   41 1
    23   11   12 ar
    24   11   42 1
    25   12   13 ar
    26   12   30 1
    27   13   14 ar
    28   13   43 1
    29   14   15 1
    30   15   16 2
    31   16   17 1
    32   17   18 1
    33   18   19 1
    34   18   44 1
    35   18   45 1
    36   19   20 2
    37   19   21 am
    38   21   22 1
    39   21   46 1
    40   22   27 ar
    41   22   23 ar
    42   23   24 ar
    43   23   47 1
    44   24   25 ar
    45   24   48 1
    46   25   26 ar
    47   25   49 1
    48   26   27 ar
    49   26   50 1
    50   27   28 1
    51   28   29 2
    52   28   51 1
    53   30   31 2
    54   30   52 1
@<TRIPOS>MOLECULE
ZINC15013385
   51    54     0     0     0
SMALL
USER_CHARGES
4-[2-[[1-(2,4-dimethoxyphenyl)-4,6-dioxo-2-thioxo-hexahydropyrimidin-5-ylidene]methyl]pyrrol-1-yl]benzoic acid
@<TRIPOS>ATOM
      1 C1         -1.7125    3.8774    0.0553 C.3       1 <0>         0.0256
      2 O1         -1.0575    5.1401   -0.0804 O.3       1 <0>        -0.3194
      3 C2          0.3020    5.1346   -0.0689 C.ar      1 <0>         0.1612
      4 C3          0.9890    3.9372    0.0704 C.ar      1 <0>        -0.2343
      5 C4          2.3704    3.9281    0.0821 C.ar      1 <0>        -0.0122
      6 C5          3.0737    5.1169   -0.0450 C.ar      1 <0>         0.1052
      7 C6          2.3858    6.3199   -0.1848 C.ar      1 <0>         0.1918
      8 C7          1.0006    6.3250   -0.2020 C.ar      1 <0>        -0.2369
      9 O2          3.0726    7.4865   -0.3095 O.3       1 <0>        -0.2989
     10 C8          2.3016    8.6815   -0.4492 C.3       1 <0>         0.0257
     11 N1          4.4777    5.1076   -0.0321 N.am      1 <0>        -0.4962
     12 C9          5.1276    5.3319    1.1284 C.2       1 <0>         0.5620
     13 O3          4.5135    5.5408    2.1582 O.2       1 <0>        -0.5008
     14 C10         6.6005    5.3121    1.1169 C.2       1 <0>        -0.3223
     15 C11         7.3380    5.5304    2.2750 C.2       1 <0>         0.1159
     16 C12         6.7898    5.2096    3.5274 C.2       1 <0>        -0.0287
     17 C13         5.6809    4.4043    3.7593 C.2       1 <0>        -0.0504
     18 C14         5.4906    4.3572    5.1397 C.2       1 <0>        -0.2242
     19 C15         6.4565    5.1121    5.7241 C.2       1 <0>         0.0403
     20 N2          7.2568    5.6315    4.7585 N.pl3     1 <0>        -0.3756
     21 C16         8.3635    6.4559    4.9724 C.ar      1 <0>         0.0950
     22 C17         9.6085    6.0898    4.4713 C.ar      1 <0>        -0.1278
     23 C18        10.7007    6.9030    4.6754 C.ar      1 <0>        -0.0616
     24 C19        10.5597    8.0919    5.3968 C.ar      1 <0>        -0.1042
     25 C20         9.3082    8.4536    5.9037 C.ar      1 <0>        -0.0748
     26 C21         8.2193    7.6383    5.6908 C.ar      1 <0>        -0.1263
     27 C22        11.7288    8.9625    5.6231 C.2       1 <0>         0.4902
     28 O4         11.6259    9.9466    6.3282 O.co2     1 <0>        -0.6311
     29 O5         12.9107    8.6663    5.0480 O.co2     1 <0>        -0.7493
     30 C23         7.2581    5.0570   -0.1766 C.2       1 <0>         0.5375
     31 O6          8.4714    5.0295   -0.2661 O.3       1 <0>        -0.5246
     32 N3          6.4790    4.8541   -1.2590 N.2       1 <0>        -0.6268
     33 C24         5.1415    4.8816   -1.1745 C.2       1 <0>         0.5542
     34 S1          4.2332    4.6133   -2.6007 S.2       1 <0>        -0.7153
     35 H1         -2.8023    4.0251    0.0301 H         1 <0>         0.0951
     36 H2         -1.4269    3.4172    1.0127 H         1 <0>         0.0553
     37 H3         -1.4126    3.2179   -0.7724 H         1 <0>         0.0572
     38 H4          0.4430    3.0107    0.1694 H         1 <0>         0.1293
     39 H5          2.9031    2.9949    0.1906 H         1 <0>         0.1295
     40 H6          0.4651    7.2561   -0.3148 H         1 <0>         0.1354
     41 H7          2.9769    9.5450   -0.5401 H         1 <0>         0.0983
     42 H8          1.6600    8.8093    0.4351 H         1 <0>         0.0539
     43 H9          1.6744    8.6100   -1.3501 H         1 <0>         0.0574
     44 H10         8.3509    5.9544    2.2103 H         1 <0>         0.1433
     45 H11         5.0796    3.9090    3.0113 H         1 <0>         0.1471
     46 H12         4.7115    3.8147    5.6544 H         1 <0>         0.1403
     47 H13         6.5722    5.2698    6.7862 H         1 <0>         0.1652
     48 H14         9.7177    5.1687    3.9181 H         1 <0>         0.1279
     49 H15        11.6660    6.6205    4.2820 H         1 <0>         0.1420
     50 H16         9.1955    9.3716    6.4612 H         1 <0>         0.1358
     51 H17         7.2522    7.9170    6.0825 H         1 <0>         0.1243
@<TRIPOS>BOND
     1    1    2 1
     2    1   35 1
     3    1   36 1
     4    1   37 1
     5    2    3 1
     6    3    8 ar
     7    3    4 ar
     8    4    5 ar
     9    4   38 1
    10    5    6 ar
    11    5   39 1
    12    6    7 ar
    13    6   11 1
    14    7    8 ar
    15    7    9 1
    16    8   40 1
    17    9   10 1
    18   10   41 1
    19   10   42 1
    20   10   43 1
    21   11   33 1
    22   11   12 am
    23   12   13 2
    24   12   14 1
    25   14   15 2
    26   14   30 1
    27   15   16 1
    28   15   44 1
    29   16   20 1
    30   16   17 2
    31   17   18 1
    32   17   45 1
    33   18   19 2
    34   18   46 1
    35   19   20 1
    36   19   47 1
    37   20   21 1
    38   21   26 ar
    39   21   22 ar
    40   22   23 ar
    41   22   48 1
    42   23   24 ar
    43   23   49 1
    44   24   25 ar
    45   24   27 1
    46   25   26 ar
    47   25   50 1
    48   26   51 1
    49   27   28 2
    50   27   29 1
    51   30   31 1
    52   30   32 2
    53   32   33 1
    54   33   34 2
@<TRIPOS>MOLECULE
ZINC13276815
   44    47     0     0     0
SMALL
USER_CHARGES

@<TRIPOS>ATOM
      1 C1          0.4123    1.9646   -0.1513 C.ar      1 <0>        -0.0729
      2 C2          1.6633    2.5156   -0.3357 C.ar      1 <0>        -0.1256
      3 C3          2.7897    1.7126   -0.3045 C.ar      1 <0>        -0.0323
      4 C4          2.6681    0.3430   -0.0867 C.ar      1 <0>         0.1513
      5 C5          1.4163   -0.2201    0.1001 C.ar      1 <0>        -0.0585
      6 C6          0.2792    0.5908    0.0686 C.ar      1 <0>        -0.1219
      7 C7         -1.0571   -0.0008    0.2666 C.2       1 <0>         0.5246
      8 O1         -2.0513    0.7110    0.2386 O.co2     1 <0>        -0.6891
      9 O2         -1.1712   -1.2032    0.4588 O.co2     1 <0>        -0.6816
     10 N1          3.8094   -0.4643   -0.0570 N.am      1 <0>        -0.5616
     11 C8          4.5300   -0.8957    1.1464 C.3       1 <0>         0.2535
     12 H1          3.8722   -1.4838    1.7863 H         1 <0>         0.0882
     13 C9          5.6830   -1.7457    0.6659 C.2       1 <0>        -0.4967
     14 C10         5.6051   -1.7804   -0.6880 C.2       1 <0>         0.3012
     15 C11         4.4366   -0.9870   -1.1262 C.2       1 <0>         0.5141
     16 O3          4.0947   -0.8289   -2.2814 O.2       1 <0>        -0.5117
     17 O4          6.4570   -2.4383   -1.5056 O.3       1 <0>        -0.5929
     18 C12         6.6558   -2.3820    1.4718 C.2       1 <0>         0.4491
     19 O5          7.5894   -2.9596    0.9541 O.2       1 <0>        -0.5027
     20 C13         6.5331   -2.3428    2.9733 C.3       1 <0>        -0.1984
     21 C14         7.8131   -2.1194    3.7812 C.3       1 <0>        -0.1635
     22 C15         7.1508   -3.4985    3.7630 C.3       1 <0>        -0.1578
     23 C16         5.0470    0.3035    1.8984 C.ar      1 <0>        -0.0639
     24 C17         6.3500    0.7265    1.7133 C.ar      1 <0>         0.0021
     25 C18         6.8245    1.8261    2.4033 C.ar      1 <0>        -0.0561
     26 C19         5.9964    2.5036    3.2791 C.ar      1 <0>        -0.0507
     27 C20         4.6935    2.0819    3.4646 C.ar      1 <0>        -0.1178
     28 C21         4.2162    0.9846    2.7698 C.ar      1 <0>         0.0159
     29 Cl1         2.5775    0.4586    2.9969 Cl        1 <0>        -0.0227
     30 N2          8.2198    2.2783    2.2051 N.pl3     1 <0>         0.0407
     31 O6          8.9154    1.7453    1.3722 O.2       1 <0>        -0.1528
     32 O7          8.6640    3.1806    2.8760 O.3       1 <0>        -0.1763
     33 Cl2         4.3598    2.4153   -0.5383 Cl        1 <0>        -0.0809
     34 H2         -0.4641    2.5954   -0.1723 H         1 <0>         0.1354
     35 H3          1.7640    3.5774   -0.5054 H         1 <0>         0.1261
     36 H4          1.3197   -1.2824    0.2692 H         1 <0>         0.1369
     37 H5          5.6118   -1.9058    3.3584 H         1 <0>         0.1053
     38 H6          8.7439   -2.0008    3.2266 H         1 <0>         0.0964
     39 H7          7.7341   -1.5352    4.6980 H         1 <0>         0.0870
     40 H8          6.6361   -3.8216    4.6679 H         1 <0>         0.0903
     41 H9          7.6460   -4.2872    3.1966 H         1 <0>         0.0993
     42 H10         6.9974    0.1975    1.0296 H         1 <0>         0.1661
     43 H11         6.3679    3.3623    3.8185 H         1 <0>         0.1532
     44 H12         4.0469    2.6110    4.1489 H         1 <0>         0.1514
@<TRIPOS>BOND
     1    1    6 ar
     2    1    2 ar
     3    1   34 1
     4    2    3 ar
     5    2   35 1
     6    3    4 ar
     7    3   33 1
     8    4    5 ar
     9    4   10 1
    10    5    6 ar
    11    5   36 1
    12    6    7 1
    13    7    8 2
    14    7    9 1
    15   10   15 am
    16   10   11 1
    17   11   12 1
    18   11   13 1
    19   11   23 1
    20   13   14 2
    21   13   18 1
    22   14   15 1
    23   14   17 1
    24   15   16 2
    25   18   19 2
    26   18   20 1
    27   20   22 1
    28   20   21 1
    29   20   37 1
    30   21   22 1
    31   21   38 1
    32   21   39 1
    33   22   40 1
    34   22   41 1
    35   23   28 ar
    36   23   24 ar
    37   24   25 ar
    38   24   42 1
    39   25   26 ar
    40   25   30 1
    41   26   27 ar
    42   26   43 1
    43   27   28 ar
    44   27   44 1
    45   28   29 1
    46   30   31 2
    47   30   32 1
@<TRIPOS>MOLECULE
ZINC13194043
   49    52     0     0     0
SMALL
USER_CHARGES

@<TRIPOS>ATOM
      1 C1          1.5615    2.8405    1.5476 C.3       1 <0>        -0.1175
      2 C2          1.4893    1.4810    0.9014 C.ar      1 <0>        -0.0803
      3 C3          1.8677    1.3252   -0.4193 C.ar      1 <0>        -0.1344
      4 C4          1.8041    0.0842   -1.0185 C.ar      1 <0>        -0.0840
      5 C5          1.3564   -1.0213   -0.2900 C.ar      1 <0>        -0.1346
      6 C6          0.9748   -0.8638    1.0435 C.ar      1 <0>        -0.0762
      7 C7          1.0478    0.3872    1.6371 C.ar      1 <0>         0.1391
      8 N1          0.6719    0.5496    2.9736 N.am      1 <0>        -0.5608
      9 C8         -0.6979    0.4968    3.4980 C.3       1 <0>         0.2560
     10 H1         -1.1368   -0.4815    3.3021 H         1 <0>         0.0760
     11 C9         -0.5879    0.7281    4.9870 C.2       1 <0>        -0.5052
     12 C10         0.7278    0.8940    5.2603 C.2       1 <0>         0.2711
     13 C11         1.5023    0.7761    4.0076 C.2       1 <0>         0.5122
     14 O1          2.7107    0.8724    3.9232 O.2       1 <0>        -0.5231
     15 O2          1.2506    1.1264    6.4862 O.3       1 <0>        -0.6557
     16 C12        -1.6924    0.7661    5.9498 C.2       1 <0>         0.5027
     17 O3         -1.9916    1.8138    6.4914 O.2       1 <0>        -0.4507
     18 C13        -2.4427   -0.4681    6.2627 C.ar      1 <0>        -0.1304
     19 C14        -2.1324   -1.6630    5.6089 C.ar      1 <0>        -0.0516
     20 C15        -2.8360   -2.8108    5.9059 C.ar      1 <0>        -0.1324
     21 C16        -3.8485   -2.7821    6.8498 C.ar      1 <0>        -0.0969
     22 C17        -4.1623   -1.6034    7.5017 C.ar      1 <0>        -0.1345
     23 C18        -3.4625   -0.4468    7.2184 C.ar      1 <0>         0.0018
     24 Cl1        -3.8524    1.0306    8.0425 Cl        1 <0>        -0.0498
     25 C19        -1.5370    1.5768    2.8651 C.ar      1 <0>        -0.0365
     26 C20        -2.6443    1.2345    2.1093 C.ar      1 <0>        -0.1111
     27 C21        -3.4167    2.2180    1.5271 C.ar      1 <0>        -0.0716
     28 C22        -3.0792    3.5616    1.7023 C.ar      1 <0>        -0.0503
     29 C23        -1.9607    3.8999    2.4666 C.ar      1 <0>        -0.0730
     30 C24        -1.1998    2.9063    3.0471 C.ar      1 <0>        -0.0804
     31 C25        -3.8762    4.5878    1.1005 C.1       1 <0>         0.2736
     32 N2         -4.5085    5.4019    0.6231 N.1       1 <0>        -0.4468
     33 C26         1.2868   -2.3499   -0.9282 C.2       1 <0>         0.5251
     34 O4          1.6213   -2.4852   -2.0966 O.co2     1 <0>        -0.6938
     35 O5          0.8947   -3.3156   -0.2886 O.co2     1 <0>        -0.6882
     36 H2          2.5756    3.0196    1.9048 H         1 <0>         0.0646
     37 H3          1.2931    3.6044    0.8178 H         1 <0>         0.0572
     38 H4          0.8680    2.8808    2.3876 H         1 <0>         0.0732
     39 H5          2.2139    2.1782   -0.9840 H         1 <0>         0.1140
     40 H6          2.1000   -0.0329   -2.0506 H         1 <0>         0.1239
     41 H7          0.6277   -1.7140    1.6119 H         1 <0>         0.1278
     42 H8         -1.3431   -1.6875    4.8720 H         1 <0>         0.1451
     43 H9         -2.5969   -3.7348    5.4006 H         1 <0>         0.1307
     44 H10        -4.3963   -3.6845    7.0778 H         1 <0>         0.1267
     45 H11        -4.9536   -1.5882    8.2366 H         1 <0>         0.1282
     46 H12        -2.9042    0.1950    1.9747 H         1 <0>         0.1327
     47 H13        -4.2804    1.9494    0.9369 H         1 <0>         0.1271
     48 H14        -1.6940    4.9371    2.6061 H         1 <0>         0.1267
     49 H15        -0.3367    3.1667    3.6419 H         1 <0>         0.1344
@<TRIPOS>BOND
     1    1    2 1
     2    1   36 1
     3    1   37 1
     4    1   38 1
     5    2    7 ar
     6    2    3 ar
     7    3    4 ar
     8    3   39 1
     9    4    5 ar
    10    4   40 1
    11    5    6 ar
    12    5   33 1
    13    6    7 ar
    14    6   41 1
    15    7    8 1
    16    8   13 am
    17    8    9 1
    18    9   10 1
    19    9   11 1
    20    9   25 1
    21   11   12 2
    22   11   16 1
    23   12   13 1
    24   12   15 1
    25   13   14 2
    26   16   17 2
    27   16   18 1
    28   18   23 ar
    29   18   19 ar
    30   19   20 ar
    31   19   42 1
    32   20   21 ar
    33   20   43 1
    34   21   22 ar
    35   21   44 1
    36   22   23 ar
    37   22   45 1
    38   23   24 1
    39   25   30 ar
    40   25   26 ar
    41   26   27 ar
    42   26   46 1
    43   27   28 ar
    44   27   47 1
    45   28   29 ar
    46   28   31 1
    47   29   30 ar
    48   29   48 1
    49   30   49 1
    50   31   32 3
    51   33   34 2
    52   33   35 1
@<TRIPOS>MOLECULE
ZINC43735774
   70    73     0     0     0
SMALL
USER_CHARGES

@<TRIPOS>ATOM
      1 C1         -2.3671    1.3710    2.7919 C.3       1 <0>        -0.1441
      2 C2         -2.3003   -0.1336    2.7420 C.2       1 <0>         0.4551
      3 O1         -1.9925   -0.7578    3.7297 O.2       1 <0>        -0.5067
      4 O2         -2.5827   -0.7805    1.6003 O.3       1 <0>        -0.3354
      5 C3         -2.4993   -2.2068    1.6250 C.3       1 <0>         0.0169
      6 C4         -2.8478   -2.7540    0.2648 C.2       1 <0>         0.3651
      7 O3         -3.2225   -2.0085   -0.6081 O.2       1 <0>        -0.4104
      8 C5         -2.7288   -4.2276   -0.0054 C.3       1 <0>         0.0810
      9 C6         -2.6838   -4.5009   -1.5312 C.3       1 <0>        -0.1296
     10 C7         -3.7714   -5.5785   -1.8137 C.3       1 <0>        -0.1173
     11 C8         -3.9533   -6.2075   -0.4222 C.3       1 <0>        -0.0767
     12 H1         -3.0349   -6.7786   -0.1857 H         1 <0>         0.0853
     13 C9         -4.0099   -4.9526    0.4692 C.3       1 <0>        -0.0259
     14 C10        -4.0181   -5.3428    1.9234 C.3       1 <0>        -0.1063
     15 C11        -4.9889   -6.5027    2.1876 C.3       1 <0>        -0.1163
     16 C12        -5.9106   -6.7824    1.0157 C.3       1 <0>        -0.0639
     17 H2         -6.4948   -5.8711    0.8246 H         1 <0>         0.0652
     18 C13        -5.1445   -7.1232   -0.2530 C.3       1 <0>        -0.0571
     19 H3         -5.7999   -7.0580   -1.1266 H         1 <0>         0.0740
     20 C14        -4.5810   -8.5512   -0.1487 C.3       1 <0>        -0.0729
     21 C15        -5.6446   -9.5255    0.2409 C.2       1 <0>        -0.1840
     22 C16        -6.7007   -9.1902    0.9187 C.2       1 <0>        -0.0605
     23 C17        -6.9948   -7.7896    1.3544 C.3       1 <0>        -0.0121
     24 C18        -7.3075   -7.7747    2.8505 C.3       1 <0>        -0.0932
     25 C19        -8.3836   -8.8032    3.1909 C.3       1 <0>        -0.1289
     26 C20        -7.9364  -10.2096    2.7968 C.3       1 <0>         0.1652
     27 H4         -8.7144  -10.9258    3.0694 H         1 <0>         0.0402
     28 C21        -7.6963  -10.2779    1.2858 C.3       1 <0>        -0.1020
     29 O4         -6.7301  -10.5418    3.4871 O.3       1 <0>        -0.7414
     30 P1         -6.6105  -11.7958    4.4898 P.3       1 <0>         2.1305
     31 O5         -7.7175  -11.6895    5.5933 O.2       1 <0>        -1.1928
     32 O6         -6.8005  -13.1271    3.6861 O.3       1 <0>        -1.1916
     33 O7         -5.1972  -11.7910    5.1658 O.3       1 <0>        -1.1719
     34 C22        -8.2555   -7.3261    0.6098 C.3       1 <0>        -0.1405
     35 C23        -5.1702   -4.0173    0.1299 C.3       1 <0>        -0.1619
     36 O8         -1.5841   -4.7778    0.6364 O.3       1 <0>        -0.3193
     37 C24        -0.3858   -4.3140    0.2481 C.2       1 <0>         0.4509
     38 O9         -0.3176   -3.4200   -0.5618 O.2       1 <0>        -0.5064
     39 C25         0.8744   -4.9084    0.8222 C.3       1 <0>        -0.1500
     40 H5         -2.1072    1.7132    3.7937 H         1 <0>         0.1031
     41 H6         -1.6648    1.7900    2.0713 H         1 <0>         0.1004
     42 H7         -3.3775    1.6982    2.5470 H         1 <0>         0.1018
     43 H8         -1.4852   -2.5070    1.8885 H         1 <0>         0.0952
     44 H9         -3.1980   -2.5988    2.3642 H         1 <0>         0.1100
     45 H10        -2.9125   -3.5899   -2.0813 H         1 <0>         0.0919
     46 H11        -1.7032   -4.8802   -1.8142 H         1 <0>         0.0760
     47 H12        -4.6851   -5.1385   -2.1882 H         1 <0>         0.0773
     48 H13        -3.3869   -6.3229   -2.5154 H         1 <0>         0.0713
     49 H14        -3.0086   -5.6441    2.2362 H         1 <0>         0.0777
     50 H15        -4.3077   -4.4793    2.5383 H         1 <0>         0.0554
     51 H16        -4.4133   -7.4065    2.4216 H         1 <0>         0.0746
     52 H17        -5.5893   -6.2576    3.0745 H         1 <0>         0.0727
     53 H18        -4.1587   -8.8350   -1.1145 H         1 <0>         0.0567
     54 H19        -3.7853   -8.5609    0.5996 H         1 <0>         0.0694
     55 H20        -5.5311  -10.5598   -0.0522 H         1 <0>         0.1010
     56 H21        -6.4007   -8.0060    3.4145 H         1 <0>         0.0800
     57 H22        -7.6565   -6.7795    3.1371 H         1 <0>         0.0469
     58 H23        -8.5609   -8.7826    4.2733 H         1 <0>         0.0646
     59 H24        -9.3190   -8.5608    2.6923 H         1 <0>         0.0535
     60 H25        -8.6320  -10.1298    0.7518 H         1 <0>         0.0629
     61 H26        -7.2810  -11.2542    1.0272 H         1 <0>         0.0734
     62 H27        -8.0581   -7.3072   -0.4620 H         1 <0>         0.0472
     63 H28        -9.0737   -8.0159    0.8165 H         1 <0>         0.0595
     64 H29        -8.5294   -6.3263    0.9466 H         1 <0>         0.0480
     65 H30        -5.1268   -3.7530   -0.9267 H         1 <0>         0.0686
     66 H31        -6.1147   -4.5189    0.3405 H         1 <0>         0.0886
     67 H32        -5.0965   -3.1130    0.7339 H         1 <0>         0.0512
     68 H33         0.6150   -5.6958    1.5299 H         1 <0>         0.0988
     69 H34         1.4778   -5.3278    0.0171 H         1 <0>         0.1073
     70 H35         1.4418   -4.1316    1.3347 H         1 <0>         0.1046
@<TRIPOS>BOND
     1    1    2 1
     2    1   40 1
     3    1   41 1
     4    1   42 1
     5    2    3 2
     6    2    4 1
     7    4    5 1
     8    5    6 1
     9    5   43 1
    10    5   44 1
    11    6    7 2
    12    6    8 1
    13    8   13 1
    14    8    9 1
    15    8   36 1
    16    9   10 1
    17    9   45 1
    18    9   46 1
    19   10   11 1
    20   10   47 1
    21   10   48 1
    22   11   12 1
    23   11   18 1
    24   11   13 1
    25   13   14 1
    26   13   35 1
    27   14   15 1
    28   14   49 1
    29   14   50 1
    30   15   16 1
    31   15   51 1
    32   15   52 1
    33   16   17 1
    34   16   23 1
    35   16   18 1
    36   18   19 1
    37   18   20 1
    38   20   21 1
    39   20   53 1
    40   20   54 1
    41   21   22 2
    42   21   55 1
    43   22   28 1
    44   22   23 1
    45   23   24 1
    46   23   34 1
    47   24   25 1
    48   24   56 1
    49   24   57 1
    50   25   26 1
    51   25   58 1
    52   25   59 1
    53   26   27 1
    54   26   28 1
    55   26   29 1
    56   28   60 1
    57   28   61 1
    58   29   30 1
    59   30   31 2
    60   30   32 1
    61   30   33 1
    62   34   62 1
    63   34   63 1
    64   34   64 1
    65   35   65 1
    66   35   66 1
    67   35   67 1
    68   36   37 1
    69   37   38 2
    70   37   39 1
    71   39   68 1
    72   39   69 1
    73   39   70 1
@<TRIPOS>MOLECULE
ZINC13179375
   57    61     0     0     0
SMALL
USER_CHARGES
7-[4-[(E)-3-(4-chlorophenyl)prop-2-enoyl]piperazin-1-yl]-1-cyclopropyl-6-fluoro-4-oxo-quinoline-3-carboxylic acid
@<TRIPOS>ATOM
      1 C1         -8.5671    2.3579    3.5961 C.ar      1 <0>        -0.0895
      2 C2         -9.2794    2.6429    4.7412 C.ar      1 <0>        -0.1106
      3 C3        -10.6549    2.7990    4.6846 C.ar      1 <0>        -0.0262
      4 C4        -11.3238    2.6743    3.4776 C.ar      1 <0>        -0.1120
      5 C5        -10.6239    2.3938    2.3238 C.ar      1 <0>        -0.0824
      6 C6         -9.2351    2.2355    2.3734 C.ar      1 <0>        -0.0701
      7 C7         -8.4810    1.9354    1.1458 C.2       1 <0>        -0.0205
      8 C8         -7.1421    1.7834    1.1972 C.2       1 <0>        -0.2088
      9 C9         -6.3920    1.4849   -0.0239 C.2       1 <0>         0.5503
     10 O1         -6.9619    1.4665   -1.0990 O.2       1 <0>        -0.5435
     11 N1         -5.0701    1.2304    0.0425 N.am      1 <0>        -0.6094
     12 C10        -4.3839    1.1354    1.3399 C.3       1 <0>         0.1108
     13 C11        -3.1543    2.0493    1.3083 C.3       1 <0>         0.0429
     14 N2         -2.3272    1.7120    0.1420 N.pl3     1 <0>        -0.4953
     15 C12        -3.0503    1.9577   -1.1129 C.3       1 <0>         0.0462
     16 C13        -4.2756    1.0400   -1.1805 C.3       1 <0>         0.1185
     17 C14        -1.1211    2.4078    0.1675 C.ar      1 <0>         0.1054
     18 C15        -1.1268    3.7935    0.1659 C.ar      1 <0>        -0.1805
     19 C16         0.0759    4.4894    0.1855 C.ar      1 <0>         0.2055
     20 C17         1.2852    3.7705    0.2132 C.ar      1 <0>        -0.1655
     21 C18         1.2751    2.3736    0.2203 C.ar      1 <0>        -0.0597
     22 C19         0.0850    1.7031    0.2004 C.ar      1 <0>         0.0795
     23 F1          0.0743    0.3521    0.2068 F         1 <0>        -0.1290
     24 C20         2.5515    4.5214    0.2337 C.2       1 <0>         0.4161
     25 O2          3.6280    3.9501    0.2583 O.2       1 <0>        -0.4467
     26 C21         2.4634    5.9911    0.2233 C.2       1 <0>        -0.2799
     27 C22         1.2182    6.5850    0.1957 C.2       1 <0>         0.1618
     28 N3          0.0865    5.8685    0.1776 N.pl3     1 <0>        -0.4681
     29 C23        -1.1939    6.5799    0.1487 C.3       1 <0>         0.0426
     30 C24        -1.1520    8.1065    0.0566 C.3       1 <0>        -0.1765
     31 C25        -1.5574    7.4300    1.3677 C.3       1 <0>        -0.1812
     32 C26         3.6818    6.8122    0.2425 C.2       1 <0>         0.5075
     33 O3          4.7740    6.2788    0.2668 O.co2     1 <0>        -0.6074
     34 Cl1       -11.5447    3.1518    6.1329 Cl        1 <0>        -0.0657
     35 H1         -7.4954    2.2328    3.6423 H         1 <0>         0.1370
     36 H2         -8.7646    2.7408    5.6856 H         1 <0>         0.1383
     37 H3        -12.3962    2.7968    3.4409 H         1 <0>         0.1379
     38 H4        -11.1466    2.2962    1.3838 H         1 <0>         0.1391
     39 H5         -8.9999    1.8370    0.2038 H         1 <0>         0.1393
     40 H6         -6.6232    1.8818    2.1393 H         1 <0>         0.1333
     41 H7         -4.0706    0.1059    1.5139 H         1 <0>         0.0845
     42 H8         -5.0576    1.4553    2.1348 H         1 <0>         0.0934
     43 H9         -2.5728    1.9084    2.2195 H         1 <0>         0.0948
     44 H10        -3.4752    3.0886    1.2383 H         1 <0>         0.0480
     45 H11        -3.3727    2.9982   -1.1492 H         1 <0>         0.0465
     46 H12        -2.3935    1.7503   -1.9577 H         1 <0>         0.0944
     47 H13        -3.9520    0.0014   -1.2488 H         1 <0>         0.0801
     48 H14        -4.8789    1.2935   -2.0522 H         1 <0>         0.0999
     49 H15        -2.0632    4.3311    0.1443 H         1 <0>         0.1367
     50 H16         2.2053    1.8254    0.2419 H         1 <0>         0.1540
     51 H17         1.1539    7.6630    0.1880 H         1 <0>         0.1759
     52 H18        -2.0054    6.0663   -0.3668 H         1 <0>         0.1363
     53 H19        -0.1717    8.5816    0.0176 H         1 <0>         0.1172
     54 H20        -1.9360    8.5977   -0.5197 H         1 <0>         0.1124
     55 H21        -2.6081    7.4761    1.6539 H         1 <0>         0.1072
     56 H22        -0.8439    7.4601    2.1912 H         1 <0>         0.1056
     57 O4          3.5886    8.1570    0.2332 O.co2     1 <0>        -0.7701
@<TRIPOS>BOND
     1    1    6 ar
     2    1    2 ar
     3    1   35 1
     4    2    3 ar
     5    2   36 1
     6    3    4 ar
     7    3   34 1
     8    4    5 ar
     9    4   37 1
    10    5    6 ar
    11    5   38 1
    12    6    7 1
    13    7    8 2
    14    7   39 1
    15    8    9 1
    16    8   40 1
    17    9   10 2
    18    9   11 am
    19   11   16 1
    20   11   12 1
    21   12   13 1
    22   12   41 1
    23   12   42 1
    24   13   14 1
    25   13   43 1
    26   13   44 1
    27   14   15 1
    28   14   17 1
    29   15   16 1
    30   15   45 1
    31   15   46 1
    32   16   47 1
    33   16   48 1
    34   17   22 ar
    35   17   18 ar
    36   18   19 ar
    37   18   49 1
    38   19   28 1
    39   19   20 ar
    40   20   21 ar
    41   20   24 1
    42   21   22 ar
    43   21   50 1
    44   22   23 1
    45   24   25 2
    46   24   26 1
    47   26   27 2
    48   26   32 1
    49   27   28 1
    50   27   51 1
    51   28   29 1
    52   29   31 1
    53   29   30 1
    54   29   52 1
    55   30   31 1
    56   30   53 1
    57   30   54 1
    58   31   55 1
    59   31   56 1
    60   32   33 2
    61   32   57 1
@<TRIPOS>MOLECULE
ZINC13402531
   62    65     0     0     0
SMALL
USER_CHARGES
(2S)-1-[2-[3-(3,4-dimethylphenyl)-5-ethyl-6-methyl-4-oxo-thieno[2,3-d]pyrimidin-2-yl]sulfanylacetyl]piperidine-2-carboxylic acid
@<TRIPOS>ATOM
      1 C1         -3.8380    4.9202    5.2767 C.3       1 <0>        -0.1359
      2 C2         -4.2834    5.3343    6.6807 C.3       1 <0>        -0.0763
      3 C3         -3.4183    4.6468    7.7054 C.2       1 <0>        -0.0437
      4 C4         -3.7713    3.4506    8.1983 C.2       1 <0>        -0.1751
      5 S1         -2.4579    3.0699    9.3420 S.3       1 <0>         0.1248
      6 C5         -1.4764    4.5333    9.1315 C.2       1 <0>         0.1335
      7 C6         -2.1953    5.2751    8.1750 C.2       1 <0>        -0.2632
      8 C7         -1.6240    6.5328    7.8044 C.2       1 <0>         0.5634
      9 O1         -2.1766    7.2436    6.9825 O.2       1 <0>        -0.5094
     10 N1         -0.4685    6.9213    8.3743 N.am      1 <0>        -0.4676
     11 C8          0.1649    6.1372    9.2975 C.2       1 <0>         0.3641
     12 N2         -0.3398    4.9743    9.6566 N.2       1 <0>        -0.5080
     13 S2          1.6756    6.6891   10.0172 S.3       1 <0>         0.1378
     14 C9          2.0275    5.2951   11.1168 C.3       1 <0>        -0.1527
     15 C10         3.3135    5.5530   11.8590 C.2       1 <0>         0.5089
     16 O2          3.9311    6.5783   11.6639 O.2       1 <0>        -0.4526
     17 N3          3.7771    4.6443   12.7398 N.am      1 <0>        -0.5916
     18 C11         3.0870    3.3603   12.9237 C.3       1 <0>         0.1046
     19 C12         4.0990    2.2254   12.7370 C.3       1 <0>        -0.1327
     20 C13         5.2836    2.4433   13.6811 C.3       1 <0>        -0.1178
     21 C14         5.9732    3.7663   13.3402 C.3       1 <0>        -0.1185
     22 C15         4.9857    4.9163   13.5297 C.3       1 <0>         0.1007
     23 H1          4.7222    4.9980   14.5843 H         1 <0>         0.0689
     24 C16         5.6158    6.2030   13.0623 C.2       1 <0>         0.4865
     25 O3          6.0817    6.2783   11.9500 O.co2     1 <0>        -0.6184
     26 C17         0.0955    8.1525    8.0149 C.ar      1 <0>         0.0862
     27 C18         0.9451    8.2353    6.9196 C.ar      1 <0>        -0.0859
     28 C19         1.4991    9.4503    6.5676 C.ar      1 <0>        -0.1057
     29 C20         1.2086   10.5839    7.3047 C.ar      1 <0>        -0.0634
     30 C21         0.3631   10.5046    8.3957 C.ar      1 <0>        -0.0760
     31 C22        -0.1983    9.2931    8.7497 C.ar      1 <0>        -0.0820
     32 C23         0.0487   11.7423    9.1959 C.3       1 <0>        -0.1179
     33 C24         1.8144   11.9083    6.9175 C.3       1 <0>        -0.1208
     34 C25        -4.9867    2.6248    7.8640 C.3       1 <0>        -0.0627
     35 H2         -3.9353    3.8400    5.1685 H         1 <0>         0.0507
     36 H3         -2.7976    5.2082    5.1259 H         1 <0>         0.0535
     37 H4         -4.4637    5.4175    4.5356 H         1 <0>         0.0566
     38 H5         -4.1860    6.4146    6.7889 H         1 <0>         0.0872
     39 H6         -5.3238    5.0464    6.8315 H         1 <0>         0.0696
     40 H7          1.2123    5.1810   11.8312 H         1 <0>         0.1256
     41 H8          2.1247    4.3832   10.5277 H         1 <0>         0.1249
     42 H9          2.6656    3.3125   13.9278 H         1 <0>         0.0669
     43 H10         2.2888    3.2657   12.1876 H         1 <0>         0.0798
     44 H11         3.6226    1.2720   12.9651 H         1 <0>         0.0702
     45 H12         4.4516    2.2185   11.7056 H         1 <0>         0.0664
     46 H13         4.9267    2.4745   14.7105 H         1 <0>         0.0607
     47 H14         5.9938    1.6241   13.5677 H         1 <0>         0.0608
     48 H15         6.8308    3.9095   13.9976 H         1 <0>         0.0687
     49 H16         6.3091    3.7450   12.3035 H         1 <0>         0.0719
     50 H17         1.1721    7.3505    6.3434 H         1 <0>         0.1265
     51 H18         2.1602    9.5153    5.7160 H         1 <0>         0.1339
     52 H19        -0.8622    9.2326    9.5994 H         1 <0>         0.1272
     53 H20        -0.8320   12.2307    8.7789 H         1 <0>         0.0722
     54 H21        -0.1458   11.4654   10.2321 H         1 <0>         0.0699
     55 H22         0.8966   12.4261    9.1556 H         1 <0>         0.0763
     56 H23         1.1554   12.4178    6.2145 H         1 <0>         0.0735
     57 H24         1.9413   12.5240    7.8080 H         1 <0>         0.0754
     58 H25         2.7848   11.7412    6.4501 H         1 <0>         0.0706
     59 H26        -4.7570    1.9611    7.0304 H         1 <0>         0.0771
     60 H27        -5.2731    2.0316    8.7325 H         1 <0>         0.0731
     61 H28        -5.8092    3.2844    7.5872 H         1 <0>         0.0815
     62 O4          5.6594    7.2653   13.8816 O.co2     1 <0>        -0.7720
@<TRIPOS>BOND
     1    1    2 1
     2    1   35 1
     3    1   36 1
     4    1   37 1
     5    2    3 1
     6    2   38 1
     7    2   39 1
     8    3    7 1
     9    3    4 2
    10    4    5 1
    11    4   34 1
    12    5    6 1
    13    6   12 1
    14    6    7 2
    15    7    8 1
    16    8    9 2
    17    8   10 am
    18   10   11 1
    19   10   26 1
    20   11   12 2
    21   11   13 1
    22   13   14 1
    23   14   15 1
    24   14   40 1
    25   14   41 1
    26   15   16 2
    27   15   17 am
    28   17   22 1
    29   17   18 1
    30   18   19 1
    31   18   42 1
    32   18   43 1
    33   19   20 1
    34   19   44 1
    35   19   45 1
    36   20   21 1
    37   20   46 1
    38   20   47 1
    39   21   22 1
    40   21   48 1
    41   21   49 1
    42   22   23 1
    43   22   24 1
    44   24   25 2
    45   24   62 1
    46   26   31 ar
    47   26   27 ar
    48   27   28 ar
    49   27   50 1
    50   28   29 ar
    51   28   51 1
    52   29   30 ar
    53   29   33 1
    54   30   31 ar
    55   30   32 1
    56   31   52 1
    57   32   53 1
    58   32   54 1
    59   32   55 1
    60   33   56 1
    61   33   57 1
    62   33   58 1
    63   34   59 1
    64   34   60 1
    65   34   61 1
@<TRIPOS>MOLECULE
ZINC08934484
   68    71     0     0     0
SMALL
USER_CHARGES
[2-[(1S)-1-(4,4-dimethyl-2,6-dioxo-cyclohexyl)-6,7-dimethoxy-3,4-dihydro-1H-isoquinolin-2-yl]-2-oxo-ethyl] pyrrolidine-1-carbodithioate
@<TRIPOS>ATOM
      1 C1         -0.1529    6.2584   -3.7774 C.3       1 <0>        -0.1438
      2 C2          0.5215    5.9497   -2.4392 C.3       1 <0>        -0.0382
      3 C3         -0.3827    6.4134   -1.2938 C.3       1 <0>        -0.1934
      4 C4         -1.6865    5.6496   -1.3548 C.2       1 <0>         0.4103
      5 O1         -2.7446    6.2299   -1.3997 O.3       1 <0>        -0.4930
      6 C5         -1.6273    4.1355   -1.3586 C.2       1 <0>        -0.6263
      7 C6         -0.5684    3.7255   -2.3620 C.2       1 <0>         0.4166
      8 O2         -0.7815    2.8516   -3.1677 O.2       1 <0>        -0.5032
      9 C7          0.7628    4.4420   -2.3257 C.3       1 <0>        -0.1887
     10 C8         -1.2491    3.6264    0.0338 C.3       1 <0>         0.2755
     11 H1         -0.2553    3.9878    0.3369 H         1 <0>         0.0391
     12 C9         -2.2780    4.0911    1.0280 C.ar      1 <0>        -0.0289
     13 C10        -2.3078    5.4435    1.3426 C.ar      1 <0>        -0.1609
     14 C11        -3.2349    5.9354    2.2425 C.ar      1 <0>         0.1017
     15 C12        -4.1443    5.0647    2.8366 C.ar      1 <0>         0.0820
     16 C13        -4.1078    3.7191    2.5232 C.ar      1 <0>        -0.1721
     17 C14        -3.1719    3.2273    1.6203 C.ar      1 <0>        -0.0750
     18 C15        -3.1887    1.7480    1.3374 C.3       1 <0>        -0.0853
     19 C16        -2.4770    1.4373    0.0216 C.3       1 <0>         0.1043
     20 N1         -1.1946    2.1607    0.0195 N.am      1 <0>        -0.5683
     21 C17        -0.0184    1.5028    0.0103 C.2       1 <0>         0.5295
     22 O3          1.0236    2.1234    0.0037 O.2       1 <0>        -0.5485
     23 C18         0.0021   -0.0041    0.0020 C.3       1 <0>        -0.1369
     24 S1          1.7165   -0.5841   -0.0175 S.3       1 <0>         0.0516
     25 C19         1.4502   -2.3258   -0.0243 C.2       1 <0>         0.2975
     26 S2         -0.1447   -2.9480   -0.0124 S.2       1 <0>        -0.5905
     27 N2          2.5020   -3.1684   -0.0388 N.pl3     1 <0>        -0.5189
     28 C20         3.9176   -2.7715   -0.0567 C.3       1 <0>         0.0669
     29 C21         4.7561   -4.0664   -0.0939 C.3       1 <0>        -0.1319
     30 C22         3.7611   -5.1057   -0.6743 C.3       1 <0>        -0.1292
     31 C23         2.4237   -4.6405   -0.0460 C.3       1 <0>         0.0958
     32 O4         -5.0639    5.5358    3.7208 O.3       1 <0>        -0.3116
     33 C24        -5.9641    4.5831    4.2898 C.3       1 <0>         0.0266
     34 O5         -3.2582    7.2609    2.5457 O.3       1 <0>        -0.3101
     35 C25        -2.2937    8.0919    1.8966 C.3       1 <0>         0.0232
     36 C26         1.8599    6.6871   -2.3619 C.3       1 <0>        -0.1390
     37 H2         -0.3264    7.3415   -3.8593 H         1 <0>         0.0503
     38 H3         -1.1147    5.7276   -3.8343 H         1 <0>         0.0613
     39 H4          0.4976    5.9280   -4.6006 H         1 <0>         0.0507
     40 H5          0.1154    6.2203   -0.3323 H         1 <0>         0.0720
     41 H6         -0.5792    7.4910   -1.3950 H         1 <0>         0.0589
     42 H7          1.3875    4.1063   -3.1666 H         1 <0>         0.0539
     43 H8          1.2758    4.2231   -1.3776 H         1 <0>         0.0863
     44 H9         -1.6006    6.1165    0.8807 H         1 <0>         0.1275
     45 H10        -4.8130    3.0433    2.9841 H         1 <0>         0.1278
     46 H11        -2.6772    1.2132    2.1513 H         1 <0>         0.0679
     47 H12        -4.2298    1.3999    1.2674 H         1 <0>         0.0823
     48 H13        -2.3033    0.3538   -0.0543 H         1 <0>         0.0799
     49 H14        -3.1024    1.7682   -0.8206 H         1 <0>         0.1033
     50 H15        -0.5028   -0.3826    0.9030 H         1 <0>         0.1329
     51 H16        -0.5200   -0.3730   -0.8932 H         1 <0>         0.1379
     52 H17         4.1150   -2.1577   -0.9479 H         1 <0>         0.0887
     53 H18         4.1465   -2.1889    0.8478 H         1 <0>         0.0883
     54 H19         5.6351   -3.9156   -0.7378 H         1 <0>         0.0904
     55 H20         5.0865   -4.3187    0.9245 H         1 <0>         0.0823
     56 H21         3.7687   -5.0469   -1.7727 H         1 <0>         0.0831
     57 H22         4.0609   -6.1161   -0.3592 H         1 <0>         0.0948
     58 H23         2.3088   -5.0066    0.9849 H         1 <0>         0.0890
     59 H24         1.5589   -4.9588   -0.6467 H         1 <0>         0.1058
     60 H25        -6.6493    5.0941    4.9822 H         1 <0>         0.0941
     61 H26        -5.3920    3.8194    4.8371 H         1 <0>         0.0502
     62 H27        -6.5440    4.1024    3.4882 H         1 <0>         0.0531
     63 H28        -2.4228    9.1323    2.2296 H         1 <0>         0.0954
     64 H29        -2.4349    8.0353    0.8072 H         1 <0>         0.0619
     65 H30        -1.2810    7.7477    2.1535 H         1 <0>         0.0482
     66 H31         2.3455    6.4657   -1.4000 H         1 <0>         0.0524
     67 H32         1.6870    7.7703   -2.4447 H         1 <0>         0.0507
     68 H33         2.5093    6.3554   -3.1854 H         1 <0>         0.0516
@<TRIPOS>BOND
     1    1    2 1
     2    1   37 1
     3    1   38 1
     4    1   39 1
     5    2    9 1
     6    2    3 1
     7    2   36 1
     8    3    4 1
     9    3   40 1
    10    3   41 1
    11    4    5 1
    12    4    6 2
    13    6    7 1
    14    6   10 1
    15    7    8 2
    16    7    9 1
    17    9   42 1
    18    9   43 1
    19   10   11 1
    20   10   20 1
    21   10   12 1
    22   12   17 ar
    23   12   13 ar
    24   13   14 ar
    25   13   44 1
    26   14   15 ar
    27   14   34 1
    28   15   16 ar
    29   15   32 1
    30   16   17 ar
    31   16   45 1
    32   17   18 1
    33   18   19 1
    34   18   46 1
    35   18   47 1
    36   19   20 1
    37   19   48 1
    38   19   49 1
    39   20   21 am
    40   21   22 2
    41   21   23 1
    42   23   24 1
    43   23   50 1
    44   23   51 1
    45   24   25 1
    46   25   26 2
    47   25   27 1
    48   27   31 1
    49   27   28 1
    50   28   29 1
    51   28   52 1
    52   28   53 1
    53   29   30 1
    54   29   54 1
    55   29   55 1
    56   30   31 1
    57   30   56 1
    58   30   57 1
    59   31   58 1
    60   31   59 1
    61   32   33 1
    62   33   60 1
    63   33   61 1
    64   33   62 1
    65   34   35 1
    66   35   63 1
    67   35   64 1
    68   35   65 1
    69   36   66 1
    70   36   67 1
    71   36   68 1
@<TRIPOS>MOLECULE
ZINC35420913
   51    54     0     0     0
SMALL
USER_CHARGES

@<TRIPOS>ATOM
      1 C1         -0.0184    1.5028    0.0103 C.3       1 <0>        -0.0884
      2 C2          0.0021   -0.0041    0.0020 C.2       1 <0>         0.2102
      3 C3          0.0062   -0.7336   -1.1858 C.2       1 <0>        -0.3849
      4 S1          0.0327   -2.4008   -0.5463 S.3       1 <0>         0.2209
      5 C4          0.0357   -2.0219    1.0934 C.2       1 <0>         0.3225
      6 N1          0.0225   -0.6998    1.1077 N.2       1 <0>        -0.5653
      7 N2          0.0533   -2.8870    2.1694 N.am      1 <0>        -0.5002
      8 C5          0.0492   -2.5037    3.5861 C.3       1 <0>         0.2541
      9 H1         -0.8538   -1.9397    3.8194 H         1 <0>         0.0954
     10 C6          0.0729   -3.7948    4.3708 C.2       1 <0>        -0.4676
     11 C7          0.0885   -4.8011    3.4659 C.2       1 <0>         0.2866
     12 C8          0.0712   -4.2307    2.1049 C.2       1 <0>         0.5085
     13 O1          0.0751   -4.8792    1.0772 O.2       1 <0>        -0.4766
     14 O2          0.1121   -6.1217    3.7624 O.3       1 <0>        -0.5856
     15 C9          0.0783   -3.9312    5.8322 C.2       1 <0>         0.4508
     16 O3          0.0982   -5.0383    6.3406 O.2       1 <0>        -0.4820
     17 C10         0.0598   -2.7372    6.6787 C.2       1 <0>        -0.1936
     18 C11         0.0648   -2.8627    8.0236 C.2       1 <0>        -0.0682
     19 C12         0.0462   -1.6629    8.8743 C.ar      1 <0>        -0.0564
     20 C13         0.0175   -0.3900    8.2944 C.ar      1 <0>        -0.1034
     21 C14        -0.0003    0.7296    9.0987 C.ar      1 <0>        -0.1157
     22 C15         0.0107    0.5967   10.4765 C.ar      1 <0>        -0.1216
     23 C16         0.0395   -0.6591   11.0581 C.ar      1 <0>        -0.1225
     24 C17         0.0513   -1.7887   10.2678 C.ar      1 <0>        -0.1048
     25 C18         1.2707   -1.6802    3.9038 C.ar      1 <0>        -0.0418
     26 C19         2.4920   -2.0126    3.3474 C.ar      1 <0>        -0.0835
     27 C20         3.6130   -1.2584    3.6382 C.ar      1 <0>        -0.0933
     28 C21         3.5134   -0.1698    4.4862 C.ar      1 <0>        -0.0337
     29 C22         2.2904    0.1633    5.0430 C.ar      1 <0>        -0.0225
     30 C23         1.1683   -0.5897    4.7466 C.ar      1 <0>        -0.0885
     31 Cl1         2.1639    1.5286    6.1077 Cl        1 <0>        -0.0532
     32 Cl2         4.9213    0.7776    4.8523 Cl        1 <0>        -0.0583
     33 C24        -0.0073   -0.2813   -2.5203 C.2       1 <0>         0.4469
     34 O4         -0.0255    0.9100   -2.7577 O.2       1 <0>        -0.4712
     35 C25         0.0008   -1.2753   -3.6530 C.3       1 <0>        -0.1975
     36 H2          1.0042    1.8801    0.0026 H         1 <0>         0.0825
     37 H3         -0.5455    1.8639   -0.8728 H         1 <0>         0.0941
     38 H4         -0.5286    1.8543    0.9071 H         1 <0>         0.0761
     39 H5          0.0421   -1.7559    6.2281 H         1 <0>         0.1213
     40 H6          0.0824   -3.8441    8.4743 H         1 <0>         0.1317
     41 H7          0.0096   -0.2847    7.2196 H         1 <0>         0.1220
     42 H8         -0.0225    1.7129    8.6527 H         1 <0>         0.1196
     43 H9         -0.0030    1.4777   11.1012 H         1 <0>         0.1185
     44 H10         0.0483   -0.7543   12.1339 H         1 <0>         0.1208
     45 H11         0.0693   -2.7679   10.7230 H         1 <0>         0.1250
     46 H12         2.5701   -2.8623    2.6854 H         1 <0>         0.1272
     47 H13         4.5668   -1.5190    3.2038 H         1 <0>         0.1397
     48 H14         0.2131   -0.3279    5.1774 H         1 <0>         0.1408
     49 H15        -1.0248   -1.5296   -3.9206 H         1 <0>         0.0964
     50 H16         0.5039   -0.8388   -4.5158 H         1 <0>         0.0887
     51 H17         0.5292   -2.1764   -3.3417 H         1 <0>         0.0801
@<TRIPOS>BOND
     1    1    2 1
     2    1   36 1
     3    1   37 1
     4    1   38 1
     5    2    6 1
     6    2    3 2
     7    3    4 1
     8    3   33 1
     9    4    5 1
    10    5    6 2
    11    5    7 1
    12    7   12 am
    13    7    8 1
    14    8    9 1
    15    8   10 1
    16    8   25 1
    17   10   11 2
    18   10   15 1
    19   11   12 1
    20   11   14 1
    21   12   13 2
    22   15   16 2
    23   15   17 1
    24   17   18 2
    25   17   39 1
    26   18   19 1
    27   18   40 1
    28   19   24 ar
    29   19   20 ar
    30   20   21 ar
    31   20   41 1
    32   21   22 ar
    33   21   42 1
    34   22   23 ar
    35   22   43 1
    36   23   24 ar
    37   23   44 1
    38   24   45 1
    39   25   30 ar
    40   25   26 ar
    41   26   27 ar
    42   26   46 1
    43   27   28 ar
    44   27   47 1
    45   28   29 ar
    46   28   32 1
    47   29   30 ar
    48   29   31 1
    49   30   48 1
    50   33   34 2
    51   33   35 1
    52   35   49 1
    53   35   50 1
    54   35   51 1
@<TRIPOS>MOLECULE
ZINC40003603
   55    58     0     0     0
SMALL
USER_CHARGES

@<TRIPOS>ATOM
      1 C1          4.9937   -3.2962   -0.9540 C.3       1 <0>        -0.0997
      2 C2          3.5067   -3.2776   -0.7100 C.2       1 <0>        -0.0587
      3 C3          2.6385   -3.1815   -1.7576 C.2       1 <0>        -0.1021
      4 C4          1.2589   -3.1655   -1.5139 C.2       1 <0>        -0.1532
      5 C5          0.7924   -3.2449   -0.2460 C.2       1 <0>         0.0739
      6 N1          1.6514   -3.3405    0.8033 N.pl3     1 <0>        -0.3279
      7 C6          3.0018   -3.3649    0.5987 C.2       1 <0>         0.2355
      8 N2          3.6102   -3.4700    1.7804 N.2       1 <0>        -0.5026
      9 C7          2.7094   -3.5209    2.7461 C.2       1 <0>         0.1622
     10 C8          1.4491   -3.4320    2.1685 C.2       1 <0>        -0.1444
     11 C9          0.2030   -3.4489    2.8429 C.2       1 <0>         0.5495
     12 O1         -0.8358   -3.4044    2.2056 O.2       1 <0>        -0.4957
     13 C10         0.1626   -3.5199    4.3089 C.2       1 <0>        -0.4936
     14 C11         0.1048   -4.6424    5.0606 C.2       1 <0>         0.2597
     15 C12         0.0813   -4.2708    6.4882 C.2       1 <0>         0.5131
     16 O2          0.0307   -5.0581    7.4127 O.2       1 <0>        -0.5305
     17 N3          0.1242   -2.9322    6.6160 N.am      1 <0>        -0.6111
     18 C13         0.1841   -2.3531    5.2686 C.3       1 <0>         0.2639
     19 H1          1.1042   -1.7822    5.1442 H         1 <0>         0.0750
     20 C14        -1.0123   -1.4671    5.0345 C.ar      1 <0>        -0.0507
     21 C15        -2.2657   -1.8741    5.4520 C.ar      1 <0>        -0.0828
     22 C16        -3.3632   -1.0616    5.2378 C.ar      1 <0>        -0.0906
     23 C17        -3.2072    0.1588    4.6057 C.ar      1 <0>        -0.0963
     24 C18        -1.9528    0.5656    4.1881 C.ar      1 <0>        -0.0916
     25 C19        -0.8551   -0.2452    4.4073 C.ar      1 <0>        -0.1111
     26 Br1        -4.7084    1.2705    4.3118 Br        1 <0>        -0.0686
     27 C20         0.1179   -2.1853    7.8763 C.3       1 <0>         0.1408
     28 C21         1.5569   -1.9744    8.3513 C.3       1 <0>        -0.1378
     29 C22         1.5503   -1.1945    9.6676 C.3       1 <0>         0.0658
     30 O3          2.8943   -0.9975   10.1113 O.3       1 <0>        -0.3907
     31 C23         3.0009   -0.2751   11.3396 C.3       1 <0>         0.0322
     32 O4          0.0728   -5.9080    4.5790 O.3       1 <0>        -0.6579
     33 C24         2.9996   -3.6407    4.2201 C.3       1 <0>        -0.0845
     34 H2          5.3266   -4.3250   -1.0911 H         1 <0>         0.0739
     35 H3          5.2222   -2.7180   -1.8494 H         1 <0>         0.0691
     36 H4          5.5079   -2.8589   -0.0981 H         1 <0>         0.0775
     37 H5          3.0123   -3.1178   -2.7688 H         1 <0>         0.1406
     38 H6          0.5665   -3.0892   -2.3393 H         1 <0>         0.1506
     39 H7         -0.2724   -3.2320   -0.0660 H         1 <0>         0.1726
     40 H8         -2.3875   -2.8271    5.9452 H         1 <0>         0.1270
     41 H9         -4.3425   -1.3797    5.5637 H         1 <0>         0.1274
     42 H10        -1.8305    1.5184    3.6945 H         1 <0>         0.1266
     43 H11         0.1250    0.0741    4.0850 H         1 <0>         0.1267
     44 H12        -0.3596   -1.2176    7.7228 H         1 <0>         0.0762
     45 H13        -0.4345   -2.7477    8.6291 H         1 <0>         0.0805
     46 H14         2.0343   -2.9422    8.5049 H         1 <0>         0.0780
     47 H15         2.1093   -1.4121    7.5985 H         1 <0>         0.0750
     48 H16         1.0728   -0.2267    9.5141 H         1 <0>         0.0491
     49 H17         0.9979   -1.7568   10.4204 H         1 <0>         0.0502
     50 H18         2.5536    0.7117   11.2208 H         1 <0>         0.0393
     51 H19         2.4786   -0.8184   12.1271 H         1 <0>         0.0398
     52 H20         4.0519   -0.1677   11.6079 H         1 <0>         0.0838
     53 H21         2.9950   -2.6493    4.6730 H         1 <0>         0.0757
     54 H22         2.2359   -4.2591    4.6916 H         1 <0>         0.1023
     55 H23         3.9777   -4.1003    4.3616 H         1 <0>         0.0687
@<TRIPOS>BOND
     1    1    2 1
     2    1   34 1
     3    1   35 1
     4    1   36 1
     5    2    7 1
     6    2    3 2
     7    3    4 1
     8    3   37 1
     9    4    5 2
    10    4   38 1
    11    5    6 1
    12    5   39 1
    13    6   10 1
    14    6    7 1
    15    7    8 2
    16    8    9 1
    17    9   10 2
    18    9   33 1
    19   10   11 1
    20   11   12 2
    21   11   13 1
    22   13   18 1
    23   13   14 2
    24   14   15 1
    25   14   32 1
    26   15   16 2
    27   15   17 am
    28   17   18 1
    29   17   27 1
    30   18   19 1
    31   18   20 1
    32   20   25 ar
    33   20   21 ar
    34   21   22 ar
    35   21   40 1
    36   22   23 ar
    37   22   41 1
    38   23   24 ar
    39   23   26 1
    40   24   25 ar
    41   24   42 1
    42   25   43 1
    43   27   28 1
    44   27   44 1
    45   27   45 1
    46   28   29 1
    47   28   46 1
    48   28   47 1
    49   29   30 1
    50   29   48 1
    51   29   49 1
    52   30   31 1
    53   31   50 1
    54   31   51 1
    55   31   52 1
    56   33   53 1
    57   33   54 1
    58   33   55 1
@<TRIPOS>MOLECULE
ZINC13234852
   49    51     0     0     0
SMALL
USER_CHARGES
2-[[2-[[4-[(1S)-1-carboxy-2-methyl-propyl]-5-(2-thienyl)-1,2,4-triazol-3-yl]sulfanyl]acetyl]amino]-4-chloro-benzoic acid
@<TRIPOS>ATOM
      1 C1         -2.3174   -2.7101   -1.2746 C.3       1 <0>        -0.1483
      2 C2         -1.1083   -1.7727   -1.2911 C.3       1 <0>        -0.0945
      3 C3         -1.1558   -0.9012   -2.5477 C.3       1 <0>        -0.1484
      4 C4         -1.1388   -0.8793   -0.0494 C.3       1 <0>         0.0873
      5 H1         -2.0556   -0.2898   -0.0483 H         1 <0>         0.0995
      6 C5         -1.0920   -1.7377    1.1883 C.2       1 <0>         0.4611
      7 O1         -1.0397   -2.9406    1.0877 O.co2     1 <0>        -0.5932
      8 N1          0.0189    0.0184   -0.0652 N.pl3     1 <0>        -0.4115
      9 C6          0.0045    1.3955   -0.0772 C.2       1 <0>         0.2401
     10 N2          1.2578    1.7930   -0.0900 N.2       1 <0>        -0.2609
     11 N3          2.0411    0.7744   -0.0868 N.2       1 <0>        -0.2979
     12 C7          1.3395   -0.3360   -0.0719 C.2       1 <0>         0.1631
     13 S1          1.9809   -1.9771   -0.0623 S.3       1 <0>         0.1229
     14 C8          3.7555   -1.6210   -0.0786 C.3       1 <0>        -0.1626
     15 C9          4.5276   -2.9152   -0.0730 C.2       1 <0>         0.5343
     16 O2          3.9363   -3.9740   -0.0593 O.2       1 <0>        -0.5165
     17 N4          5.8752   -2.8960   -0.0832 N.am      1 <0>        -0.6388
     18 C10         6.5893   -4.0875    0.0155 C.ar      1 <0>         0.1912
     19 C11         6.1011   -5.2440   -0.5762 C.ar      1 <0>        -0.1312
     20 C12         6.8135   -6.4241   -0.4807 C.ar      1 <0>        -0.0160
     21 C13         8.0140   -6.4650    0.2134 C.ar      1 <0>        -0.1470
     22 C14         8.5106   -5.3280    0.8112 C.ar      1 <0>        -0.0501
     23 C15         7.8034   -4.1258    0.7188 C.ar      1 <0>        -0.1381
     24 C16         8.3295   -2.9060    1.3557 C.2       1 <0>         0.4956
     25 O3          7.6670   -1.8873    1.3573 O.co2     1 <0>        -0.6244
     26 Cl1         6.1999   -7.8654   -1.2290 Cl        1 <0>        -0.0874
     27 C17        -1.1877    2.2585   -0.0813 C.2       1 <0>        -0.0573
     28 C18        -1.2848    3.6003    0.1885 C.2       1 <0>        -0.1265
     29 C19        -2.5220    4.2004    0.1180 C.2       1 <0>        -0.1497
     30 C20        -3.6057    3.4480   -0.2049 C.2       1 <0>        -0.1900
     31 S2         -2.8854    1.8303   -0.4310 S.3       1 <0>         0.0779
     32 H2         -3.2342   -2.1206   -1.2736 H         1 <0>         0.0410
     33 H3         -2.2957   -3.3466   -2.1592 H         1 <0>         0.0509
     34 H4         -2.2836   -3.3310   -0.3794 H         1 <0>         0.0982
     35 H5         -0.1915   -2.3622   -1.2922 H         1 <0>         0.0912
     36 H6         -0.2945   -0.2333   -2.5595 H         1 <0>         0.0462
     37 H7         -1.1341   -1.5376   -3.4323 H         1 <0>         0.0599
     38 H8         -2.0727   -0.3117   -2.5467 H         1 <0>         0.0521
     39 H9          4.0040   -1.0536   -0.9754 H         1 <0>         0.1239
     40 H10         4.0172   -1.0380    0.8044 H         1 <0>         0.1310
     41 H11         6.3476   -2.0523   -0.1592 H         1 <0>         0.4283
     42 H12         5.1652   -5.2209   -1.1147 H         1 <0>         0.1485
     43 H13         8.5616   -7.3930    0.2857 H         1 <0>         0.1269
     44 H14         9.4453   -5.3653    1.3510 H         1 <0>         0.1425
     45 H15        -0.4079    4.1748    0.4478 H         1 <0>         0.1437
     46 H16        -2.6301    5.2555    0.3214 H         1 <0>         0.1356
     47 H17        -4.6380    3.7506   -0.3000 H         1 <0>         0.1855
     48 O4         -1.1085   -1.1659    2.4026 O.co2     1 <0>        -0.7392
     49 O5          9.5456   -2.9199    1.9363 O.co2     1 <0>        -0.7487
@<TRIPOS>BOND
     1    1    2 1
     2    1   32 1
     3    1   33 1
     4    1   34 1
     5    2    3 1
     6    2    4 1
     7    2   35 1
     8    3   36 1
     9    3   37 1
    10    3   38 1
    11    4    5 1
    12    4    6 1
    13    4    8 1
    14    6    7 2
    15    6   48 1
    16    8   12 1
    17    8    9 1
    18    9   10 2
    19    9   27 1
    20   10   11 1
    21   11   12 2
    22   12   13 1
    23   13   14 1
    24   14   15 1
    25   14   39 1
    26   14   40 1
    27   15   16 2
    28   15   17 am
    29   17   18 1
    30   17   41 1
    31   18   23 ar
    32   18   19 ar
    33   19   20 ar
    34   19   42 1
    35   20   21 ar
    36   20   26 1
    37   21   22 ar
    38   21   43 1
    39   22   23 ar
    40   22   44 1
    41   23   24 1
    42   24   25 2
    43   24   49 1
    44   27   31 1
    45   27   28 2
    46   28   29 1
    47   28   45 1
    48   29   30 2
    49   29   46 1
    50   30   31 1
    51   30   47 1
@<TRIPOS>MOLECULE
ZINC13440408
   51    53     0     0     0
SMALL
USER_CHARGES
2-[[2-(6-ethyl-4-oxo-3-propyl-thieno[2,3-d]pyrimidin-2-yl)sulfanylacetyl]amino]terephthalic acid
@<TRIPOS>ATOM
      1 C1         -3.6673    1.9124    4.9402 C.3       1 <0>        -0.1472
      2 C2         -2.4408    1.0818    4.5573 C.3       1 <0>        -0.1402
      3 C3         -1.2269    2.0017    4.4122 C.3       1 <0>         0.0835
      4 N1         -0.0525    1.2064    4.0455 N.am      1 <0>        -0.5099
      5 C4          0.7251    0.6915    5.0156 C.2       1 <0>         0.5637
      6 O1          0.4569    0.8837    6.1891 O.2       1 <0>        -0.5314
      7 C5          1.8739   -0.0795    4.6518 C.2       1 <0>        -0.2743
      8 C6          2.8559   -0.7254    5.5057 C.2       1 <0>        -0.0791
      9 C7          3.8661   -1.4055    4.9440 C.2       1 <0>        -0.1713
     10 S1          3.5660   -1.2243    3.1961 S.3       1 <0>         0.1349
     11 C8          2.0916   -0.2398    3.2703 C.2       1 <0>         0.1371
     12 N2          1.2810    0.2916    2.3633 N.2       1 <0>        -0.5045
     13 C9          0.2295    0.9976    2.7266 C.2       1 <0>         0.3619
     14 S2         -0.8227    1.6874    1.4930 S.3       1 <0>         0.1222
     15 C10         0.0213    1.1083    0.0003 C.3       1 <0>        -0.1488
     16 C11        -0.7228    1.5925   -1.2175 C.2       1 <0>         0.5175
     17 O2         -1.7250    2.2632   -1.0887 O.2       1 <0>        -0.5193
     18 N3         -0.2745    1.2804   -2.4495 N.am      1 <0>        -0.6252
     19 C12        -1.0112    1.6487   -3.5728 C.ar      1 <0>         0.1415
     20 C13        -1.7118    2.8464   -3.5834 C.ar      1 <0>        -0.0980
     21 C14        -2.4434    3.2134   -4.7104 C.ar      1 <0>        -0.1062
     22 C15        -2.4810    2.3726   -5.8263 C.ar      1 <0>        -0.1048
     23 C16        -1.7920    1.1812   -5.8188 C.ar      1 <0>        -0.0827
     24 C17        -1.0517    0.8074   -4.6943 C.ar      1 <0>        -0.1446
     25 C18        -0.3131   -0.4704   -4.6869 C.2       1 <0>         0.5022
     26 O3          0.2494   -0.8410   -3.6759 O.co2     1 <0>        -0.6429
     27 C19        -3.1861    4.4930   -4.7244 C.2       1 <0>         0.4969
     28 O4         -3.1541    5.2243   -3.7554 O.co2     1 <0>        -0.6344
     29 C20         4.9870   -2.1459    5.6271 C.3       1 <0>        -0.0335
     30 C21         4.5657   -3.5963    5.8713 C.3       1 <0>        -0.1504
     31 H1         -3.8624    2.6517    4.1634 H         1 <0>         0.0647
     32 H2         -4.5321    1.2570    5.0435 H         1 <0>         0.0625
     33 H3         -3.4812    2.4202    5.8865 H         1 <0>         0.0565
     34 H4         -2.6269    0.5739    3.6109 H         1 <0>         0.0767
     35 H5         -2.2457    0.3425    5.3341 H         1 <0>         0.0694
     36 H6         -1.0407    2.5096    5.3586 H         1 <0>         0.1074
     37 H7         -1.4220    2.7410    3.6354 H         1 <0>         0.1034
     38 H8          2.7736   -0.6583    6.5805 H         1 <0>         0.1372
     39 H9          0.0503    0.0187   -0.0011 H         1 <0>         0.1365
     40 H10         1.0388    1.4988   -0.0165 H         1 <0>         0.1309
     41 H11         0.5612    0.7991   -2.5540 H         1 <0>         0.4220
     42 H12        -1.6868    3.4950   -2.7202 H         1 <0>         0.1404
     43 H13        -3.0526    2.6585   -6.6969 H         1 <0>         0.1262
     44 H14        -1.8240    0.5342   -6.6829 H         1 <0>         0.1282
     45 H15         5.8740   -2.1268    4.9938 H         1 <0>         0.0800
     46 H16         5.2108   -1.6671    6.5804 H         1 <0>         0.0852
     47 H17         4.3419   -4.0751    4.9180 H         1 <0>         0.0598
     48 H18         5.3764   -4.1318    6.3654 H         1 <0>         0.0617
     49 H19         3.6787   -3.6153    6.5046 H         1 <0>         0.0582
     50 O5         -0.2627   -1.2259   -5.8013 O.co2     1 <0>        -0.7554
     51 O6         -3.8976    4.8468   -5.8119 O.co2     1 <0>        -0.7645
@<TRIPOS>BOND
     1    1    2 1
     2    1   31 1
     3    1   32 1
     4    1   33 1
     5    2    3 1
     6    2   34 1
     7    2   35 1
     8    3    4 1
     9    3   36 1
    10    3   37 1
    11    4   13 1
    12    4    5 am
    13    5    6 2
    14    5    7 1
    15    7   11 2
    16    7    8 1
    17    8    9 2
    18    8   38 1
    19    9   10 1
    20    9   29 1
    21   10   11 1
    22   11   12 1
    23   12   13 2
    24   13   14 1
    25   14   15 1
    26   15   16 1
    27   15   39 1
    28   15   40 1
    29   16   17 2
    30   16   18 am
    31   18   19 1
    32   18   41 1
    33   19   24 ar
    34   19   20 ar
    35   20   21 ar
    36   20   42 1
    37   21   22 ar
    38   21   27 1
    39   22   23 ar
    40   22   43 1
    41   23   24 ar
    42   23   44 1
    43   24   25 1
    44   25   26 2
    45   25   50 1
    46   27   28 2
    47   27   51 1
    48   29   30 1
    49   29   45 1
    50   29   46 1
    51   30   47 1
    52   30   48 1
    53   30   49 1
@<TRIPOS>MOLECULE
ZINC01114057
   36    37     0     0     0
SMALL
USER_CHARGES
2-[4-[(4,6-dioxo-2-thioxo-hexahydropyrimidin-5-ylidene)methyl]-2-ethoxy-6-iodo-phenoxy]acetic acid
@<TRIPOS>ATOM
      1 C1         -2.3544   -2.1502    1.3656 C.3       1 <0>        -0.1521
      2 C2         -1.4568   -1.5175    2.4309 C.3       1 <0>         0.0495
      3 O1         -1.3449   -0.1139    2.1872 O.3       1 <0>        -0.2957
      4 C3         -0.5762    0.6032    3.0498 C.ar      1 <0>         0.0939
      5 C4          0.0572   -0.0305    4.0986 C.ar      1 <0>        -0.1499
      6 C5          0.8450    0.7136    4.9900 C.ar      1 <0>        -0.0684
      7 C6          0.9880    2.0972    4.8051 C.ar      1 <0>        -0.0056
      8 C7          0.3562    2.7184    3.7520 C.ar      1 <0>        -0.1035
      9 C8         -0.4240    1.9788    2.8699 C.ar      1 <0>         0.1300
     10 O2         -1.0443    2.5979    1.8335 O.3       1 <0>        -0.2952
     11 C9         -0.3196    2.6904    0.6054 C.3       1 <0>         0.0306
     12 C10        -1.1607    3.4033   -0.4218 C.2       1 <0>         0.4776
     13 O3         -2.2673    3.7924   -0.1320 O.co2     1 <0>        -0.6154
     14 O4         -0.6806    3.6062   -1.6588 O.co2     1 <0>        -0.7644
     15 I1          0.5710    4.7841    3.4766 I         1 <0>        -0.0200
     16 C11         1.5145    0.0495    6.1083 C.2       1 <0>         0.0668
     17 C12         2.8376    0.3321    6.3875 C.2       1 <0>        -0.2839
     18 C13         3.6725    1.1150    5.4547 C.2       1 <0>         0.5225
     19 O5          3.2154    1.5346    4.4085 O.3       1 <0>        -0.4894
     20 N1          4.9546    1.3569    5.7975 N.2       1 <0>        -0.6227
     21 C14         5.4728    0.8953    6.9441 C.2       1 <0>         0.5546
     22 S1          7.1125    1.2455    7.2902 S.2       1 <0>        -0.7216
     23 N2          4.7773    0.1741    7.8342 N.am      1 <0>        -0.6637
     24 C15         3.4816   -0.1406    7.6293 C.2       1 <0>         0.5636
     25 O6          2.8608   -0.7952    8.4453 O.2       1 <0>        -0.5297
     26 H1         -2.4405   -3.2306    1.5533 H         1 <0>         0.0734
     27 H2         -1.9153   -1.9847    0.3707 H         1 <0>         0.0683
     28 H3         -3.3527   -1.6901    1.4070 H         1 <0>         0.0676
     29 H4         -1.8959   -1.6830    3.4258 H         1 <0>         0.0590
     30 H5         -0.4585   -1.9775    2.3896 H         1 <0>         0.0592
     31 H6         -0.0565   -1.0957    4.2359 H         1 <0>         0.1348
     32 H7          1.5930    2.6742    5.4888 H         1 <0>         0.1294
     33 H8          0.6116    3.2521    0.7706 H         1 <0>         0.0595
     34 H9         -0.0789    1.6795    0.2446 H         1 <0>         0.0547
     35 H10         0.9644   -0.6749    6.7269 H         1 <0>         0.1468
     36 H11         5.2620   -0.1758    8.7576 H         1 <0>         0.4392
@<TRIPOS>BOND
     1    1    2 1
     2    1   26 1
     3    1   27 1
     4    1   28 1
     5    2    3 1
     6    2   29 1
     7    2   30 1
     8    3    4 1
     9    4    9 ar
    10    4    5 ar
    11    5    6 ar
    12    5   31 1
    13    6    7 ar
    14    6   16 1
    15    7    8 ar
    16    7   32 1
    17    8    9 ar
    18    8   15 1
    19    9   10 1
    20   10   11 1
    21   11   12 1
    22   11   33 1
    23   11   34 1
    24   12   13 2
    25   12   14 1
    26   16   17 2
    27   16   35 1
    28   17   24 1
    29   17   18 1
    30   18   19 1
    31   18   20 2
    32   20   21 1
    33   21   22 2
    34   21   23 1
    35   23   24 am
    36   23   36 1
    37   24   25 2
@<TRIPOS>MOLECULE
ZINC13194581
   50    53     0     0     0
SMALL
USER_CHARGES

@<TRIPOS>ATOM
      1 C1          1.1170   -0.7138   -3.5337 C.ar      1 <0>        -0.1318
      2 C2          2.2969    0.0094   -3.5791 C.ar      1 <0>        -0.0938
      3 C3          3.1378    0.0432   -2.4817 C.ar      1 <0>        -0.1318
      4 C4          2.8051   -0.6455   -1.3316 C.ar      1 <0>         0.0027
      5 C5          1.6152   -1.3771   -1.2794 C.ar      1 <0>        -0.1334
      6 C6          0.7715   -1.4058   -2.3925 C.ar      1 <0>        -0.0537
      7 C7          1.2518   -2.1173   -0.0529 C.2       1 <0>         0.4992
      8 O1          2.0219   -2.1501    0.8886 O.2       1 <0>        -0.4494
      9 C8         -0.0362   -2.8119    0.0293 C.2       1 <0>        -0.5058
     10 C9         -0.2285   -4.1495    0.1143 C.2       1 <0>         0.2749
     11 C10        -1.6781   -4.4283    0.1778 C.2       1 <0>         0.5071
     12 O2         -2.1722   -5.5355    0.2590 O.2       1 <0>        -0.5091
     13 N1         -2.3701   -3.2755    0.1324 N.am      1 <0>        -0.5471
     14 C11        -1.4054   -2.1732    0.0423 C.3       1 <0>         0.2594
     15 H1         -1.5658   -1.6118   -0.8782 H         1 <0>         0.0828
     16 C12        -1.5413   -1.2628    1.2355 C.ar      1 <0>        -0.0636
     17 C13        -1.7093   -1.7993    2.4987 C.ar      1 <0>        -0.0326
     18 C14        -1.8339   -0.9644    3.5931 C.ar      1 <0>        -0.1156
     19 C15        -1.7902    0.4072    3.4248 C.ar      1 <0>        -0.0637
     20 C16        -1.6213    0.9434    2.1621 C.ar      1 <0>        -0.0499
     21 C17        -1.4923    0.1082    1.0679 C.ar      1 <0>        -0.0514
     22 N2         -1.5749    2.4119    1.9819 N.pl3     1 <0>         0.0424
     23 O3         -1.7737    3.1431    2.9239 O.2       1 <0>        -0.1745
     24 O4         -1.3383    2.8800    0.8926 O.3       1 <0>        -0.1646
     25 C18        -3.7615   -3.1496    0.1694 C.ar      1 <0>         0.1564
     26 C19        -4.3486   -1.8921    0.1082 C.ar      1 <0>        -0.1550
     27 C20        -5.7239   -1.7713    0.1445 C.ar      1 <0>        -0.0905
     28 C21        -6.5163   -2.9005    0.2418 C.ar      1 <0>        -0.0486
     29 C22        -5.9352   -4.1539    0.3029 C.ar      1 <0>        -0.0892
     30 C23        -4.5608   -4.2821    0.2617 C.ar      1 <0>        -0.1512
     31 C24        -8.0167   -2.7648    0.2817 C.3       1 <0>        -0.1521
     32 C25        -8.5626   -2.8094   -1.1223 C.2       1 <0>         0.4961
     33 O5         -7.8037   -2.9394   -2.0676 O.co2     1 <0>        -0.6836
     34 O6         -9.7632   -2.7156   -1.3127 O.co2     1 <0>        -0.7112
     35 O7          0.7509   -5.0824    0.1371 O.3       1 <0>        -0.6449
     36 Cl1         3.8620   -0.6033    0.0450 Cl        1 <0>        -0.0490
     37 H2          0.4634   -0.7322   -4.3932 H         1 <0>         0.1308
     38 H3          2.5619    0.5494   -4.4760 H         1 <0>         0.1286
     39 H4          4.0567    0.6091   -2.5242 H         1 <0>         0.1301
     40 H5         -0.1492   -1.9693   -2.3592 H         1 <0>         0.1432
     41 H6         -1.7435   -2.8707    2.6301 H         1 <0>         0.1365
     42 H7         -1.9659   -1.3834    4.5797 H         1 <0>         0.1436
     43 H8         -1.8883    1.0596    4.2798 H         1 <0>         0.1470
     44 H9         -1.3566    0.5272    0.0818 H         1 <0>         0.1498
     45 H10        -3.7303   -1.0098    0.0326 H         1 <0>         0.1121
     46 H11        -6.1809   -0.7940    0.0973 H         1 <0>         0.1136
     47 H12        -6.5570   -5.0336    0.3792 H         1 <0>         0.1156
     48 H13        -4.1077   -5.2615    0.3051 H         1 <0>         0.1458
     49 H14        -8.4403   -3.5841    0.8625 H         1 <0>         0.0653
     50 H15        -8.2834   -1.8150    0.7452 H         1 <0>         0.0645
@<TRIPOS>BOND
     1    1    6 ar
     2    1    2 ar
     3    1   37 1
     4    2    3 ar
     5    2   38 1
     6    3    4 ar
     7    3   39 1
     8    4    5 ar
     9    4   36 1
    10    5    6 ar
    11    5    7 1
    12    6   40 1
    13    7    8 2
    14    7    9 1
    15    9   14 1
    16    9   10 2
    17   10   11 1
    18   10   35 1
    19   11   12 2
    20   11   13 am
    21   13   14 1
    22   13   25 1
    23   14   15 1
    24   14   16 1
    25   16   21 ar
    26   16   17 ar
    27   17   18 ar
    28   17   41 1
    29   18   19 ar
    30   18   42 1
    31   19   20 ar
    32   19   43 1
    33   20   21 ar
    34   20   22 1
    35   21   44 1
    36   22   23 2
    37   22   24 1
    38   25   30 ar
    39   25   26 ar
    40   26   27 ar
    41   26   45 1
    42   27   28 ar
    43   27   46 1
    44   28   29 ar
    45   28   31 1
    46   29   30 ar
    47   29   47 1
    48   30   48 1
    49   31   32 1
    50   31   49 1
    51   31   50 1
    52   32   33 2
    53   32   34 1
@<TRIPOS>MOLECULE
ZINC13449758
   54    55     0     0     0
SMALL
USER_CHARGES

@<TRIPOS>ATOM
      1 C1         -0.0187    1.5258    0.0104 C.3       1 <0>        -0.1523
      2 C2          0.0021   -0.0041    0.0020 C.3       1 <0>         0.0554
      3 O1          0.6932   -0.4774    1.1597 O.3       1 <0>        -0.3435
      4 C3          0.8011   -1.8137    1.3045 C.2       1 <0>         0.5349
      5 O2          0.3211   -2.5564    0.4699 O.2       1 <0>        -0.4883
      6 C4          1.4978   -2.3715    2.4692 C.2       1 <0>        -0.2482
      7 C5          0.8159   -2.6669    3.6412 C.2       1 <0>         0.0450
      8 C6          1.5644   -3.1836    4.6655 C.2       1 <0>        -0.3276
      9 S1          3.2008   -3.2431    3.9643 S.3       1 <0>         0.4054
     10 C7          2.8699   -2.6297    2.4362 C.2       1 <0>         0.0856
     11 N1          3.7497   -2.4264    1.3913 N.am      1 <0>        -0.6124
     12 C8          5.0532   -2.7359    1.5381 C.2       1 <0>         0.5356
     13 O3          5.4534   -3.1929    2.5876 O.2       1 <0>        -0.4732
     14 C9          6.0133   -2.5140    0.3979 C.3       1 <0>        -0.1384
     15 S2          7.6795   -3.0238    0.9025 S.3       1 <0>         0.0192
     16 C10         8.6711   -2.7067   -0.5190 C.ar      1 <0>         0.3011
     17 N2          8.1030   -2.1982   -1.6033 N.ar      1 <0>        -0.6257
     18 C11         8.8227   -1.9481   -2.6899 C.ar      1 <0>         0.4457
     19 O4          8.2383   -1.4278   -3.7963 O.3       1 <0>        -0.6902
     20 C12        10.1888   -2.2278   -2.6771 C.ar      1 <0>        -0.2663
     21 C13        10.7432   -2.7574   -1.5271 C.ar      1 <0>         0.1573
     22 N3          9.9677   -2.9774   -0.4762 N.ar      1 <0>        -0.5818
     23 C14        12.2150   -3.0758   -1.4677 C.3       1 <0>        -0.0913
     24 C15        11.0416   -1.9590   -3.8902 C.3       1 <0>        -0.0180
     25 C16        11.5984   -0.5358   -3.8170 C.3       1 <0>        -0.1644
     26 C17        12.4511   -0.2670   -5.0301 C.2       1 <0>         0.4943
     27 O5         12.5998   -1.1334   -5.8749 O.co2     1 <0>        -0.7030
     28 O6         12.9924    0.8169   -5.1668 O.co2     1 <0>        -0.7215
     29 C18         1.1287   -3.5855    6.0024 C.2       1 <0>         0.5641
     30 O7         -0.0406   -3.4754    6.3198 O.2       1 <0>        -0.5029
     31 O8          2.0234   -4.0784    6.8838 O.3       1 <0>        -0.3480
     32 C19         1.5281   -4.4510    8.1714 C.3       1 <0>         0.0374
     33 C20        -0.6662   -2.4317    3.7797 C.3       1 <0>        -0.1138
     34 H1          1.0039    1.9031    0.0027 H         1 <0>         0.0699
     35 H2         -0.5459    1.8868   -0.8726 H         1 <0>         0.0802
     36 H3         -0.5289    1.8773    0.9072 H         1 <0>         0.0655
     37 H4         -1.0205   -0.3814    0.0098 H         1 <0>         0.0679
     38 H5          0.5123   -0.3556   -0.8948 H         1 <0>         0.0718
     39 H6          3.4295   -2.0608    0.5519 H         1 <0>         0.4276
     40 H7          5.6979   -3.1038   -0.4627 H         1 <0>         0.1310
     41 H8          6.0220   -1.4573    0.1307 H         1 <0>         0.1315
     42 H9         12.7612   -2.2036   -1.1086 H         1 <0>         0.0663
     43 H10        12.3786   -3.9122   -0.7881 H         1 <0>         0.0603
     44 H11        12.5696   -3.3420   -2.4634 H         1 <0>         0.0747
     45 H12        11.8665   -2.6708   -3.9193 H         1 <0>         0.0506
     46 H13        10.4368   -2.0667   -4.7905 H         1 <0>         0.0641
     47 H14        10.7734    0.1761   -3.7878 H         1 <0>         0.0540
     48 H15        12.2032   -0.4281   -2.9166 H         1 <0>         0.0444
     49 H16         0.7702   -5.2262    8.0588 H         1 <0>         0.0609
     50 H17         2.3485   -4.8306    8.7804 H         1 <0>         0.1038
     51 H18         1.0877   -3.5802    8.6571 H         1 <0>         0.0610
     52 H19        -1.2066   -3.3252    3.4671 H         1 <0>         0.0829
     53 H20        -0.9031   -2.2091    4.8200 H         1 <0>         0.0966
     54 H21        -0.9608   -1.5907    3.1520 H         1 <0>         0.0645
@<TRIPOS>BOND
     1    1    2 1
     2    1   34 1
     3    1   35 1
     4    1   36 1
     5    2    3 1
     6    2   37 1
     7    2   38 1
     8    3    4 1
     9    4    5 2
    10    4    6 1
    11    6   10 2
    12    6    7 1
    13    7    8 2
    14    7   33 1
    15    8    9 1
    16    8   29 1
    17    9   10 1
    18   10   11 1
    19   11   12 am
    20   11   39 1
    21   12   13 2
    22   12   14 1
    23   14   40 1
    24   14   41 1
    25   14   15 1
    26   15   16 1
    27   16   22 ar
    28   16   17 ar
    29   17   18 ar
    30   18   19 1
    31   18   20 ar
    32   20   24 1
    33   20   21 ar
    34   21   22 ar
    35   21   23 1
    36   23   42 1
    37   23   43 1
    38   23   44 1
    39   24   25 1
    40   24   45 1
    41   24   46 1
    42   25   26 1
    43   25   47 1
    44   25   48 1
    45   26   27 2
    46   26   28 1
    47   29   30 2
    48   29   31 1
    49   31   32 1
    50   32   49 1
    51   32   50 1
    52   32   51 1
    53   33   52 1
    54   33   53 1
    55   33   54 1
@<TRIPOS>MOLECULE
ZINC13036594
   52    55     0     0     0
SMALL
USER_CHARGES
2-[[3-nitro-4-[3-(o-tolyl)-4-oxo-quinazolin-2-yl]sulfanyl-benzoyl]amino]acetic acid
@<TRIPOS>ATOM
      1 C1         -7.0233    6.7809   -2.1050 C.3       1 <0>        -0.1207
      2 C2         -7.6980    6.4694   -0.7940 C.ar      1 <0>        -0.0550
      3 C3         -9.0445    6.1625   -0.7650 C.ar      1 <0>        -0.1164
      4 C4         -9.6641    5.8766    0.4374 C.ar      1 <0>        -0.0931
      5 C5         -8.9385    5.8973    1.6147 C.ar      1 <0>        -0.1171
      6 C6         -7.5910    6.1982    1.5917 C.ar      1 <0>        -0.0741
      7 C7         -6.9669    6.4910    0.3861 C.ar      1 <0>         0.0839
      8 N1         -5.6013    6.8018    0.3601 N.am      1 <0>        -0.4786
      9 C8         -5.2032    8.0890    0.4861 C.2       1 <0>         0.5581
     10 O1         -6.0115    8.9890    0.6230 O.2       1 <0>        -0.4954
     11 C9         -3.7600    8.3604    0.4522 C.ar      1 <0>        -0.1998
     12 C10        -3.2502    9.6524    0.5743 C.ar      1 <0>        -0.0384
     13 C11        -1.8974    9.8492    0.5365 C.ar      1 <0>        -0.1401
     14 C12        -1.0282    8.7773    0.3785 C.ar      1 <0>        -0.0673
     15 C13        -1.5006    7.5010    0.2561 C.ar      1 <0>        -0.1112
     16 C14        -2.8784    7.2671    0.2909 C.ar      1 <0>         0.1704
     17 N2         -3.3893    6.0187    0.1797 N.2       1 <0>        -0.5293
     18 C15        -4.6806    5.8021    0.2079 C.2       1 <0>         0.3703
     19 S1         -5.2582    4.1450    0.0498 S.3       1 <0>         0.1673
     20 C16        -3.7210    3.2837    0.0512 C.ar      1 <0>        -0.0800
     21 C17        -3.1914    2.8058   -1.1446 C.ar      1 <0>        -0.0544
     22 C18        -1.9886    2.1376   -1.1475 C.ar      1 <0>        -0.0454
     23 C19        -1.3036    1.9288    0.0534 C.ar      1 <0>        -0.0851
     24 C20        -1.8380    2.4098    1.2521 C.ar      1 <0>        -0.0055
     25 C21        -3.0389    3.0821    1.2477 C.ar      1 <0>         0.0053
     26 N3         -3.6055    3.5918    2.5167 N.pl3     1 <0>         0.0291
     27 O2         -3.0090    3.4161    3.5640 O.2       1 <0>        -0.1514
     28 O3         -4.6682    4.1869    2.5136 O.3       1 <0>        -0.1469
     29 C22        -0.0166    1.2076    0.0545 C.2       1 <0>         0.5441
     30 O4          0.5805    1.0311    1.0990 O.2       1 <0>        -0.5351
     31 N4          0.4947    0.7396   -1.1014 N.am      1 <0>        -0.6894
     32 C23         1.7698    0.0182   -1.0994 C.3       1 <0>         0.0736
     33 C24         2.1153   -0.3949   -2.5069 C.2       1 <0>         0.4600
     34 O5          1.3727   -0.1155   -3.4181 O.co2     1 <0>        -0.6360
     35 H1         -6.6361    5.8605   -2.5421 H         1 <0>         0.0805
     36 H2         -7.7447    7.2314   -2.7868 H         1 <0>         0.0772
     37 H3         -6.2013    7.4761   -1.9345 H         1 <0>         0.0585
     38 H4         -9.6137    6.1455   -1.6826 H         1 <0>         0.1328
     39 H5        -10.7170    5.6369    0.4575 H         1 <0>         0.1308
     40 H6         -9.4253    5.6732    2.5524 H         1 <0>         0.1340
     41 H7         -7.0239    6.2098    2.5108 H         1 <0>         0.1336
     42 H8         -3.9188   10.4916    0.6974 H         1 <0>         0.1373
     43 H9         -1.5004   10.8491    0.6309 H         1 <0>         0.1335
     44 H10         0.0367    8.9554    0.3517 H         1 <0>         0.1353
     45 H11        -0.8130    6.6772    0.1339 H         1 <0>         0.1380
     46 H12        -3.7228    2.9641   -2.0714 H         1 <0>         0.1631
     47 H13        -1.5761    1.7710   -2.0759 H         1 <0>         0.1608
     48 H14        -1.3089    2.2543    2.1807 H         1 <0>         0.1719
     49 H15         0.0184    0.8804   -1.9346 H         1 <0>         0.4078
     50 H16         2.5536    0.6669   -0.7083 H         1 <0>         0.0796
     51 H17         1.6847   -0.8683   -0.4710 H         1 <0>         0.0798
     52 O6          3.2481   -1.0734   -2.7482 O.co2     1 <0>        -0.7507
@<TRIPOS>BOND
     1    1    2 1
     2    1   35 1
     3    1   36 1
     4    1   37 1
     5    2    7 ar
     6    2    3 ar
     7    3    4 ar
     8    3   38 1
     9    4    5 ar
    10    4   39 1
    11    5    6 ar
    12    5   40 1
    13    6    7 ar
    14    6   41 1
    15    7    8 1
    16    8   18 1
    17    8    9 am
    18    9   10 2
    19    9   11 1
    20   11   16 ar
    21   11   12 ar
    22   12   13 ar
    23   12   42 1
    24   13   14 ar
    25   13   43 1
    26   14   15 ar
    27   14   44 1
    28   15   16 ar
    29   15   45 1
    30   16   17 1
    31   17   18 2
    32   18   19 1
    33   19   20 1
    34   20   25 ar
    35   20   21 ar
    36   21   22 ar
    37   21   46 1
    38   22   23 ar
    39   22   47 1
    40   23   24 ar
    41   23   29 1
    42   24   25 ar
    43   24   48 1
    44   25   26 1
    45   26   27 2
    46   26   28 1
    47   29   30 2
    48   29   31 am
    49   31   32 1
    50   31   49 1
    51   32   33 1
    52   32   50 1
    53   32   51 1
    54   33   34 2
    55   33   52 1
@<TRIPOS>MOLECULE
ZINC13218809
   50    52     0     0     0
SMALL
USER_CHARGES
2-[2-[[4-(difluoromethoxy)-3-methoxy-phenyl]methylamino]-2-oxo-ethyl]sulfanyl-3-(4-fluorophenyl)imidazole-4-carboxylic acid
@<TRIPOS>ATOM
      1 C1         -2.9321   -5.8639    3.5748 C.3       1 <0>         0.0241
      2 O1         -2.9335   -6.6357    2.3722 O.3       1 <0>        -0.3062
      3 C2         -2.9544   -5.9494    1.1982 C.ar      1 <0>         0.1154
      4 C3         -2.9732   -4.5639    1.2041 C.ar      1 <0>        -0.1567
      5 C4         -2.9940   -3.8679    0.0099 C.ar      1 <0>        -0.0918
      6 C5         -3.0018   -4.5512   -1.1920 C.ar      1 <0>        -0.0965
      7 C6         -2.9774   -5.9333   -1.2050 C.ar      1 <0>        -0.1540
      8 C7         -2.9565   -6.6371   -0.0115 C.ar      1 <0>         0.0827
      9 O2         -2.9385   -7.9969   -0.0225 O.3       1 <0>        -0.3092
     10 C8         -2.9419   -8.6355   -1.3008 C.3       1 <0>         0.4101
     11 F1         -4.0957   -8.2691   -2.0021 F         1 <0>        -0.1989
     12 F2         -1.8115   -8.2388   -2.0233 F         1 <0>        -0.1978
     13 C9         -3.0144   -2.3611    0.0182 C.3       1 <0>         0.1648
     14 N1         -1.6400   -1.8540    0.0078 N.am      1 <0>        -0.7234
     15 C10        -1.4117   -0.5257    0.0127 C.2       1 <0>         0.5353
     16 O3         -2.3441    0.2498    0.0258 O.2       1 <0>        -0.5217
     17 C11         0.0021   -0.0041    0.0020 C.3       1 <0>        -0.1431
     18 S1         -0.0225    1.8057    0.0120 S.3       1 <0>         0.0562
     19 C12         1.7084    2.1353   -0.0028 C.2       1 <0>         0.1543
     20 N2          2.6610    1.2237   -0.0172 N.2       1 <0>        -0.4913
     21 C13         3.8536    1.8131   -0.0258 C.2       1 <0>         0.0177
     22 C14         3.6553    3.1781   -0.0163 C.2       1 <0>        -0.0143
     23 N3          2.2767    3.3707   -0.0070 N.pl3     1 <0>        -0.3729
     24 C15         1.6041    4.6007   -0.0008 C.ar      1 <0>         0.1294
     25 C16         1.7112    5.4570   -1.0884 C.ar      1 <0>        -0.0216
     26 C17         1.0432    6.6658   -1.0829 C.ar      1 <0>        -0.1444
     27 C18         0.2765    7.0291    0.0116 C.ar      1 <0>         0.1037
     28 C19         0.1726    6.1787    1.0995 C.ar      1 <0>        -0.1488
     29 C20         0.8346    4.9666    1.0953 C.ar      1 <0>        -0.0763
     30 F3         -0.3714    8.2146    0.0177 F         1 <0>        -0.1416
     31 C21         4.6545    4.1827   -0.0213 C.2       1 <0>         0.5100
     32 O4          5.8307    3.8710   -0.0349 O.co2     1 <0>        -0.6193
     33 H1         -2.9145   -6.5325    4.4355 H         1 <0>         0.1034
     34 H2         -2.0505   -5.2232    3.5944 H         1 <0>         0.0585
     35 H3         -3.8302   -5.2474    3.6119 H         1 <0>         0.0576
     36 H4         -2.9720   -4.0278    2.1416 H         1 <0>         0.1425
     37 H5         -3.0228   -4.0039   -2.1228 H         1 <0>         0.1357
     38 H6         -2.9794   -6.4647   -2.1452 H         1 <0>         0.1428
     39 H7         -2.9263   -9.7171   -1.1667 H         1 <0>         0.1829
     40 H8         -3.5246   -2.0095    0.9150 H         1 <0>         0.0800
     41 H9         -3.5416   -2.0000   -0.8649 H         1 <0>         0.0826
     42 H10        -0.8943   -2.4742   -0.0027 H         1 <0>         0.4058
     43 H11         0.5123   -0.3556   -0.8948 H         1 <0>         0.1245
     44 H12         0.5293   -0.3651    0.8851 H         1 <0>         0.1241
     45 H13         4.8096    1.3108   -0.0380 H         1 <0>         0.1816
     46 H14         2.3129    5.1760   -1.9401 H         1 <0>         0.1337
     47 H15         1.1229    7.3303   -1.9304 H         1 <0>         0.1397
     48 H16        -0.4261    6.4637    1.9520 H         1 <0>         0.1399
     49 H17         0.7539    4.3039    1.9443 H         1 <0>         0.1345
     50 O5          4.3016    5.4854   -0.0111 O.co2     1 <0>        -0.7442
@<TRIPOS>BOND
     1    1    2 1
     2    1   33 1
     3    1   34 1
     4    1   35 1
     5    2    3 1
     6    3    8 ar
     7    3    4 ar
     8    4    5 ar
     9    4   36 1
    10    5    6 ar
    11    5   13 1
    12    6    7 ar
    13    6   37 1
    14    7    8 ar
    15    7   38 1
    16    8    9 1
    17    9   10 1
    18   10   11 1
    19   10   12 1
    20   10   39 1
    21   13   14 1
    22   13   40 1
    23   13   41 1
    24   14   15 am
    25   14   42 1
    26   15   16 2
    27   15   17 1
    28   17   18 1
    29   17   43 1
    30   17   44 1
    31   18   19 1
    32   19   23 1
    33   19   20 2
    34   20   21 1
    35   21   22 2
    36   21   45 1
    37   22   23 1
    38   22   31 1
    39   23   24 1
    40   24   29 ar
    41   24   25 ar
    42   25   26 ar
    43   25   46 1
    44   26   27 ar
    45   26   47 1
    46   27   28 ar
    47   27   30 1
    48   28   29 ar
    49   28   48 1
    50   29   49 1
    51   31   32 2
    52   31   50 1
@<TRIPOS>MOLECULE
ZINC12862092
   58    60     0     0     0
SMALL
USER_CHARGES
isopropyl (3R)-3-(2-nitrophenyl)-3-[[2-[3-(p-tolyl)-5-thioxo-1H-1,2,4-triazol-4-yl]acetyl]amino]propanoate
@<TRIPOS>ATOM
      1 C1         -2.4661    3.8060   -0.0694 C.3       1 <0>        -0.1119
      2 C2         -1.1361    3.1072   -0.1866 C.ar      1 <0>        -0.0930
      3 C3          0.0358    3.8369   -0.0963 C.ar      1 <0>        -0.1085
      4 C4          1.2566    3.2037   -0.2082 C.ar      1 <0>        -0.1111
      5 C5          1.3077    1.8231   -0.4021 C.ar      1 <0>         0.0015
      6 C6          0.1225    1.0922   -0.4871 C.ar      1 <0>        -0.0830
      7 C7         -1.0921    1.7379   -0.3789 C.ar      1 <0>        -0.1192
      8 C8          2.6137    1.1370   -0.5178 C.2       1 <0>         0.2089
      9 N1          2.8299   -0.1299   -0.3003 N.2       1 <0>        -0.3076
     10 N2          4.1911   -0.3819   -0.5194 N.2       1 <0>        -0.3792
     11 C9          4.7695    0.7866   -0.8653 C.2       1 <0>         0.4015
     12 S1          6.4242    1.0249   -1.2340 S.3       1 <0>        -0.7747
     13 N3          3.8093    1.7325   -0.8685 N.pl3     1 <0>        -0.4843
     14 C10         4.0011    3.1491   -1.1887 C.3       1 <0>         0.0914
     15 C11         4.4176    3.8930    0.0539 C.2       1 <0>         0.5153
     16 O1          4.5420    3.2984    1.1036 O.2       1 <0>        -0.5020
     17 N4          4.6520    5.2191   -0.0013 N.am      1 <0>        -0.7378
     18 C12         5.0569    5.9423    1.2067 C.3       1 <0>         0.1906
     19 H1          4.5462    5.4735    2.0607 H         1 <0>         0.1385
     20 C13         4.6663    7.4157    1.0740 C.3       1 <0>        -0.1083
     21 C14         3.1649    7.5347    1.0226 C.2       1 <0>         0.4654
     22 O2          2.4778    6.5429    1.0856 O.2       1 <0>        -0.4825
     23 O3          2.5910    8.7426    0.9068 O.3       1 <0>        -0.3596
     24 C15         1.1402    8.7816    0.8634 C.3       1 <0>         0.0797
     25 C16         0.6472   10.0992    1.4648 C.3       1 <0>        -0.1510
     26 C17         0.6704    8.6765   -0.5889 C.3       1 <0>        -0.1700
     27 C18         6.5497    5.8321    1.3814 C.ar      1 <0>        -0.0286
     28 C19         7.3562    5.5716    0.2891 C.ar      1 <0>        -0.0952
     29 C20         8.7253    5.4705    0.4494 C.ar      1 <0>        -0.0568
     30 C21         9.2883    5.6307    1.7019 C.ar      1 <0>        -0.1181
     31 C22         8.4821    5.8916    2.7938 C.ar      1 <0>        -0.0557
     32 C23         7.1130    5.9970    2.6327 C.ar      1 <0>        -0.0385
     33 N5          6.2501    6.2819    3.8011 N.pl3     1 <0>         0.0340
     34 O4          6.7314    6.3177    4.9194 O.2       1 <0>        -0.1615
     35 O5          5.0587    6.4805    3.6443 O.3       1 <0>        -0.1664
     36 H2         -2.3023    4.8836    0.0790 H         1 <0>         0.0623
     37 H3         -3.0204    3.3978    0.7885 H         1 <0>         0.0673
     38 H4         -3.0464    3.6467   -0.9902 H         1 <0>         0.0668
     39 H5         -0.0050    4.9051    0.0579 H         1 <0>         0.1228
     40 H6          2.1707    3.7750   -0.1412 H         1 <0>         0.1240
     41 H7          0.1556    0.0231   -0.6368 H         1 <0>         0.1324
     42 H8         -2.0103    1.1732   -0.4449 H         1 <0>         0.1236
     43 H9          4.7835    3.2490   -1.9555 H         1 <0>         0.1255
     44 H10         3.0587    3.5698   -1.5694 H         1 <0>         0.1126
     45 H11         4.5393    5.7584   -0.9534 H         1 <0>         0.4152
     46 H12         5.0491    7.9759    1.9398 H         1 <0>         0.1184
     47 H13         5.0986    7.8279    0.1503 H         1 <0>         0.1123
     48 H14         0.7837    7.9243    1.4533 H         1 <0>         0.0881
     49 H15        -0.4519   10.1287    1.4319 H         1 <0>         0.0781
     50 H16         1.0541   10.9414    0.8859 H         1 <0>         0.0670
     51 H17         0.9850   10.1747    2.5089 H         1 <0>         0.0654
     52 H18        -0.4287    8.7060   -0.6218 H         1 <0>         0.0747
     53 H19         1.0248    7.7292   -1.0213 H         1 <0>         0.0637
     54 H20         1.0773    9.5187   -1.1678 H         1 <0>         0.0655
     55 H21         6.9164    5.4468   -0.6893 H         1 <0>         0.1476
     56 H22         9.3553    5.2667   -0.4038 H         1 <0>         0.1450
     57 H23        10.3581    5.5517    1.8272 H         1 <0>         0.1469
     58 H24         8.9219    6.0164    3.7723 H         1 <0>         0.1526
@<TRIPOS>BOND
     1    1    2 1
     2    1   36 1
     3    1   37 1
     4    1   38 1
     5    2    7 ar
     6    2    3 ar
     7    3    4 ar
     8    3   39 1
     9    4    5 ar
    10    4   40 1
    11    5    6 ar
    12    5    8 1
    13    6    7 ar
    14    6   41 1
    15    7   42 1
    16    8   13 1
    17    8    9 2
    18    9   10 1
    19   10   11 2
    20   11   12 1
    21   11   13 1
    22   13   14 1
    23   14   15 1
    24   14   43 1
    25   14   44 1
    26   15   16 2
    27   15   17 am
    28   17   18 1
    29   17   45 1
    30   18   19 1
    31   18   20 1
    32   18   27 1
    33   20   21 1
    34   20   46 1
    35   20   47 1
    36   21   22 2
    37   21   23 1
    38   23   24 1
    39   24   25 1
    40   24   26 1
    41   24   48 1
    42   25   49 1
    43   25   50 1
    44   25   51 1
    45   26   52 1
    46   26   53 1
    47   26   54 1
    48   27   32 ar
    49   27   28 ar
    50   28   29 ar
    51   28   55 1
    52   29   30 ar
    53   29   56 1
    54   30   31 ar
    55   30   57 1
    56   31   32 ar
    57   31   58 1
    58   32   33 1
    59   33   34 2
    60   33   35 1
@<TRIPOS>MOLECULE
ZINC13544271
   67    69     0     0     0
SMALL
USER_CHARGES

@<TRIPOS>ATOM
      1 C1          0.9456   -2.3630    2.3218 C.3       1 <0>        -0.1528
      2 C2          0.4695   -1.6918    1.0320 C.3       1 <0>         0.0610
      3 O1          1.1467   -2.2716   -0.0848 O.3       1 <0>        -0.3474
      4 C3          0.8391   -1.7889   -1.3047 C.2       1 <0>         0.5125
      5 O2          0.0184   -0.8999   -1.4171 O.2       1 <0>        -0.5085
      6 C4          1.4985   -2.3394   -2.5031 C.ar      1 <0>        -0.1316
      7 C5          2.4388   -3.3663   -2.3761 C.ar      1 <0>        -0.0495
      8 C6          3.0520   -3.8782   -3.4969 C.ar      1 <0>        -0.0899
      9 C7          2.7374   -3.3744   -4.7555 C.ar      1 <0>         0.1747
     10 C8          1.8022   -2.3519   -4.8856 C.ar      1 <0>        -0.1409
     11 C9          1.1806   -1.8397   -3.7697 C.ar      1 <0>        -0.0437
     12 N1          3.3604   -3.8947   -5.8880 N.pl3     1 <0>        -0.6408
     13 C10         3.5568   -5.2234   -5.9986 C.2       1 <0>         0.5580
     14 S1          2.9082   -6.2854   -4.8229 S.2       1 <0>        -0.6193
     15 N2          4.2639   -5.7162   -7.0348 N.pl3     1 <0>        -0.5543
     16 C11         4.9343   -4.8174   -7.9866 C.3       1 <0>         0.0977
     17 C12         4.5327   -5.2263   -9.4078 C.3       1 <0>         0.0416
     18 N3          4.8128   -6.6555   -9.6003 N.3       1 <0>        -0.5389
     19 C13         4.0056   -7.4834   -8.6942 C.3       1 <0>         0.0380
     20 C14         4.3907   -7.1670   -7.2403 C.3       1 <0>         0.1084
     21 C15         4.6034   -7.0491  -11.0000 C.3       1 <0>         0.0688
     22 C16         5.1379   -8.4663  -11.2166 C.3       1 <0>         0.0508
     23 N4          4.9291   -8.8588  -12.6125 N.2       1 <0>        -0.5671
     24 C17         5.9474   -9.0726  -13.3846 C.2       1 <0>         0.2580
     25 C18         5.7377   -9.4669  -14.7866 C.2       1 <0>        -0.5071
     26 C19         4.4378   -9.6014  -15.2730 C.2       1 <0>         0.3951
     27 C20         4.1915  -10.0023  -16.7040 C.3       1 <0>        -0.1495
     28 C21         5.3481  -10.8794  -17.1911 C.3       1 <0>        -0.0499
     29 C22         6.6595  -10.1029  -17.0448 C.3       1 <0>        -0.1445
     30 C23         6.8425   -9.6939  -15.6067 C.2       1 <0>         0.3974
     31 O3          7.9689   -9.5641  -15.1535 O.3       1 <0>        -0.5857
     32 C24         5.4123  -12.1556  -16.3496 C.3       1 <0>        -0.1426
     33 C25         5.1302  -11.2438  -18.6610 C.3       1 <0>        -0.1385
     34 O4          3.4901   -9.3926  -14.5318 O.2       1 <0>        -0.5295
     35 H1          0.7269   -3.4300    2.2783 H         1 <0>         0.0680
     36 H2          2.0201   -2.2166    2.4324 H         1 <0>         0.0671
     37 H3          0.4291   -1.9207    3.1737 H         1 <0>         0.0793
     38 H4         -0.6049   -1.8381    0.9214 H         1 <0>         0.0682
     39 H5          0.6882   -0.6248    1.0756 H         1 <0>         0.0676
     40 H6          2.6840   -3.7572   -1.3996 H         1 <0>         0.1431
     41 H7          3.7784   -4.6714   -3.3995 H         1 <0>         0.1530
     42 H8          1.5609   -1.9629   -5.8638 H         1 <0>         0.1346
     43 H9          0.4517   -1.0493   -3.8717 H         1 <0>         0.1419
     44 H10         3.6528   -3.3005   -6.5968 H         1 <0>         0.4078
     45 H11         4.6241   -3.7892   -7.8000 H         1 <0>         0.0801
     46 H12         6.0149   -4.9032   -7.8725 H         1 <0>         0.0994
     47 H13         3.4682   -5.0416   -9.5524 H         1 <0>         0.0408
     48 H14         5.1048   -4.6432  -10.1294 H         1 <0>         0.0955
     49 H15         2.9485   -7.2672   -8.8487 H         1 <0>         0.0427
     50 H16         4.1954   -8.5372   -8.8983 H         1 <0>         0.1031
     51 H17         5.4200   -7.4744   -7.0557 H         1 <0>         0.0921
     52 H18         3.7209   -7.6931   -6.5600 H         1 <0>         0.1291
     53 H19         3.5381   -7.0236  -11.2291 H         1 <0>         0.0426
     54 H20         5.1327   -6.3571  -11.6551 H         1 <0>         0.0705
     55 H21         6.2032   -8.4918  -10.9874 H         1 <0>         0.0264
     56 H22         4.6086   -9.1583  -10.5615 H         1 <0>         0.0581
     57 H23         6.9501   -8.9614  -12.9991 H         1 <0>         0.0605
     58 H24         3.2582  -10.5615  -16.7695 H         1 <0>         0.0672
     59 H25         4.1253   -9.1093  -17.3256 H         1 <0>         0.0711
     60 H26         7.4925  -10.7341  -17.3543 H         1 <0>         0.0693
     61 H27         6.6261   -9.2113  -17.6710 H         1 <0>         0.0740
     62 H28         4.4751  -12.7034  -16.4482 H         1 <0>         0.0470
     63 H29         6.2359  -12.7791  -16.6973 H         1 <0>         0.0464
     64 H30         5.5715  -11.8934  -15.3036 H         1 <0>         0.0705
     65 H31         5.0888  -10.3333  -19.2588 H         1 <0>         0.0510
     66 H32         5.9541  -11.8682  -19.0065 H         1 <0>         0.0509
     67 H33         4.1924  -11.7896  -18.7649 H         1 <0>         0.0512
@<TRIPOS>BOND
     1    1    2 1
     2    1   35 1
     3    1   36 1
     4    1   37 1
     5    2    3 1
     6    2   38 1
     7    2   39 1
     8    3    4 1
     9    4    5 2
    10    4    6 1
    11    6   11 ar
    12    6    7 ar
    13    7    8 ar
    14    7   40 1
    15    8    9 ar
    16    8   41 1
    17    9   10 ar
    18    9   12 1
    19   10   11 ar
    20   10   42 1
    21   11   43 1
    22   12   13 1
    23   12   44 1
    24   13   14 2
    25   13   15 1
    26   15   20 1
    27   15   16 1
    28   16   17 1
    29   16   45 1
    30   16   46 1
    31   17   18 1
    32   17   47 1
    33   17   48 1
    34   18   19 1
    35   18   21 1
    36   19   20 1
    37   19   49 1
    38   19   50 1
    39   20   51 1
    40   20   52 1
    41   21   22 1
    42   21   53 1
    43   21   54 1
    44   22   55 1
    45   22   56 1
    46   22   23 1
    47   23   24 2
    48   24   25 1
    49   24   57 1
    50   25   30 2
    51   25   26 1
    52   26   27 1
    53   26   34 2
    54   27   28 1
    55   27   58 1
    56   27   59 1
    57   28   29 1
    58   28   32 1
    59   28   33 1
    60   29   30 1
    61   29   60 1
    62   29   61 1
    63   30   31 1
    64   32   62 1
    65   32   63 1
    66   32   64 1
    67   33   65 1
    68   33   66 1
    69   33   67 1
@<TRIPOS>MOLECULE
ZINC33905876
   53    56     0     0     0
SMALL
USER_CHARGES

@<TRIPOS>ATOM
      1 C1         -0.2470   -1.2186    1.1899 C.1       1 <0>        -0.2021
      2 C2         -0.2305   -0.0555    1.0317 C.1       1 <0>        -0.1810
      3 C3         -0.2099    1.4030    0.8334 C.3       1 <0>        -0.0296
      4 C4          1.2380    1.8791    0.6998 C.3       1 <0>         0.1119
      5 N1          1.2585    3.3306    0.5024 N.am      1 <0>        -0.6042
      6 C5          1.2092    3.9305   -0.7314 C.2       1 <0>         0.5789
      7 O1          0.9275    3.4188   -1.7937 O.2       1 <0>        -0.4667
      8 C6          1.5679    5.3073   -0.4819 C.3       1 <0>        -0.1895
      9 H1          2.6345    5.2315   -0.2705 H         1 <0>         0.1167
     10 C7          1.4700    6.6306   -1.1137 C.3       1 <0>         0.1364
     11 H2          2.2488    6.7521   -1.8665 H         1 <0>         0.1156
     12 N2          1.6764    7.5966    0.0154 N.3       1 <0>        -0.6293
     13 C8          1.7628    6.7986    1.2816 C.3       1 <0>         0.0595
     14 C9          0.9162    5.5547    0.9369 C.3       1 <0>        -0.0985
     15 H3         -0.1600    5.7272    0.9288 H         1 <0>         0.1374
     16 C10         1.3229    4.2321    1.5264 C.2       1 <0>         0.5429
     17 O2          1.6440    4.0127    2.6746 O.2       1 <0>        -0.4306
     18 C11         3.2146    6.4281    1.5911 C.3       1 <0>        -0.0958
     19 C12         4.0120    7.6831    1.8363 C.ar      1 <0>        -0.0656
     20 C13         4.6370    8.3221    0.7817 C.ar      1 <0>        -0.1273
     21 C14         5.3684    9.4733    1.0066 C.ar      1 <0>        -0.1224
     22 C15         5.4746    9.9858    2.2860 C.ar      1 <0>        -0.1275
     23 C16         4.8489    9.3474    3.3405 C.ar      1 <0>        -0.1173
     24 C17         4.1139    8.1986    3.1149 C.ar      1 <0>        -0.0856
     25 C18         1.1459    7.5528    2.4313 C.2       1 <0>         0.5210
     26 O3          0.6913    8.6701    2.2535 O.co2     1 <0>        -0.6644
     27 O4          1.1014    7.0458    3.5392 O.co2     1 <0>        -0.6782
     28 C19         0.1083    6.8204   -1.7307 C.ar      1 <0>         0.0028
     29 C20        -0.8548    7.5568   -1.0666 C.ar      1 <0>        -0.0787
     30 C21        -2.1046    7.7313   -1.6333 C.ar      1 <0>         0.0043
     31 C22        -2.3899    7.1686   -2.8649 C.ar      1 <0>        -0.1175
     32 C23        -1.4262    6.4327   -3.5279 C.ar      1 <0>        -0.0524
     33 C24        -0.1756    6.2630   -2.9633 C.ar      1 <0>        -0.0410
     34 N3          0.8580    5.4799   -3.6767 N.pl3     1 <0>         0.0514
     35 O5          0.6100    4.9922   -4.7548 O.2       1 <0>        -0.1724
     36 O6          1.9503    5.3278   -3.1813 O.3       1 <0>        -0.1497
     37 Cl1        -3.3148    8.6554   -0.7996 Cl        1 <0>        -0.0405
     38 H4         -0.2617   -2.2590    1.3314 H         1 <0>         0.2190
     39 H5         -0.7601    1.6541   -0.0735 H         1 <0>         0.0929
     40 H6         -0.6759    1.8926    1.6884 H         1 <0>         0.0927
     41 H7          1.7882    1.6279    1.6066 H         1 <0>         0.0981
     42 H8          1.7041    1.3895   -0.1553 H         1 <0>         0.0932
     43 H9          2.5126    8.1436   -0.1250 H         1 <0>         0.3501
     44 H10         3.2472    5.7975    2.4796 H         1 <0>         0.0966
     45 H11         3.6396    5.8870    0.7457 H         1 <0>         0.0572
     46 H12         4.5541    7.9216   -0.2179 H         1 <0>         0.1132
     47 H13         5.8573    9.9720    0.1828 H         1 <0>         0.1164
     48 H14         6.0466   10.8848    2.4619 H         1 <0>         0.1151
     49 H15         4.9321    9.7477    4.3401 H         1 <0>         0.1178
     50 H16         3.6219    7.7019    3.9381 H         1 <0>         0.1307
     51 H17        -0.6317    7.9954   -0.1052 H         1 <0>         0.1869
     52 H18        -3.3655    7.3042   -3.3077 H         1 <0>         0.1518
     53 H19        -1.6489    5.9932   -4.4889 H         1 <0>         0.1576
@<TRIPOS>BOND
     1    1    2 3
     2    1   38 1
     3    2    3 1
     4    3    4 1
     5    3   39 1
     6    3   40 1
     7    4    5 1
     8    4   41 1
     9    4   42 1
    10    5   16 am
    11    5    6 am
    12    6    7 2
    13    6    8 1
    14    8    9 1
    15    8   14 1
    16    8   10 1
    17   10   11 1
    18   10   12 1
    19   10   28 1
    20   12   13 1
    21   12   43 1
    22   13   14 1
    23   13   18 1
    24   13   25 1
    25   14   15 1
    26   14   16 1
    27   16   17 2
    28   18   19 1
    29   18   44 1
    30   18   45 1
    31   19   24 ar
    32   19   20 ar
    33   20   21 ar
    34   20   46 1
    35   21   22 ar
    36   21   47 1
    37   22   23 ar
    38   22   48 1
    39   23   24 ar
    40   23   49 1
    41   24   50 1
    42   25   26 2
    43   25   27 1
    44   28   33 ar
    45   28   29 ar
    46   29   30 ar
    47   29   51 1
    48   30   31 ar
    49   30   37 1
    50   31   32 ar
    51   31   52 1
    52   32   33 ar
    53   32   53 1
    54   33   34 1
    55   34   35 2
    56   34   36 1
@<TRIPOS>MOLECULE
ZINC05374732
   41    42     0     0     0
SMALL
USER_CHARGES
2-[4-[(3-methyl-4-oxo-2-thioxo-thiazolidin-5-ylidene)methyl]benzoyl]aminopentanedioic acid
@<TRIPOS>ATOM
      1 C1          5.3131    4.2126    2.6585 C.3       1 <0>         0.0494
      2 N1          4.1050    4.6422    1.9498 N.am      1 <0>        -0.5219
      3 C2          3.3342    3.7326    1.3775 C.2       1 <0>         0.5292
      4 O1          3.6015    2.5467    1.4232 O.2       1 <0>        -0.4263
      5 C3          2.1289    4.2335    0.6777 C.2       1 <0>        -0.2592
      6 C4          1.1690    3.5468    0.0095 C.2       1 <0>         0.1176
      7 C5          1.3327    2.1078   -0.2382 C.ar      1 <0>        -0.1098
      8 C6          0.2326    1.2481   -0.1283 C.ar      1 <0>        -0.0835
      9 C7          0.3863   -0.0894   -0.3593 C.ar      1 <0>        -0.0797
     10 C8          1.6407   -0.6001   -0.7046 C.ar      1 <0>        -0.0700
     11 C9          2.7395    0.2567   -0.8146 C.ar      1 <0>        -0.0958
     12 C10         2.5889    1.5947   -0.5847 C.ar      1 <0>        -0.0472
     13 C11         1.8054   -2.0471   -0.9531 C.2       1 <0>         0.5469
     14 O2          0.8502   -2.7929   -0.8572 O.2       1 <0>        -0.5447
     15 N2          3.0147   -2.5403   -1.2861 N.am      1 <0>        -0.6786
     16 C12         3.1780   -3.9751   -1.5326 C.3       1 <0>         0.0987
     17 H1          2.2778   -4.3673   -2.0056 H         1 <0>         0.0880
     18 C13         4.3782   -4.2009   -2.4543 C.3       1 <0>        -0.0870
     19 C14         4.0914   -3.5849   -3.8251 C.3       1 <0>        -0.1532
     20 C15         5.2735   -3.8073   -4.7330 C.2       1 <0>         0.4611
     21 O3          6.2456   -4.3979   -4.3254 O.co2     1 <0>        -0.6380
     22 C16         3.4087   -4.6865   -0.2242 C.2       1 <0>         0.4649
     23 O4          3.4340   -4.0592    0.8082 O.co2     1 <0>        -0.6392
     24 S1          2.2917    5.9929    0.9494 S.3       1 <0>         0.0653
     25 C17         3.8053    5.9557    1.8958 C.2       1 <0>         0.2919
     26 S2          4.6710    7.2713    2.5671 S.2       1 <0>        -0.3680
     27 H2          6.1539    4.1943    1.9652 H         1 <0>         0.0892
     28 H3          5.5258    4.9095    3.4693 H         1 <0>         0.1058
     29 H4          5.1583    3.2146    3.0685 H         1 <0>         0.1020
     30 H5          0.2842    4.0578   -0.3406 H         1 <0>         0.1603
     31 H6         -0.7376    1.6430    0.1345 H         1 <0>         0.1327
     32 H7         -0.4618   -0.7527   -0.2746 H         1 <0>         0.1425
     33 H8          3.7082   -0.1394   -1.0812 H         1 <0>         0.1346
     34 H9          3.4380    2.2565   -0.6701 H         1 <0>         0.1238
     35 H10         3.7769   -1.9452   -1.3627 H         1 <0>         0.3922
     36 H11         5.2616   -3.7308   -2.0223 H         1 <0>         0.0578
     37 H12         4.5540   -5.2708   -2.5663 H         1 <0>         0.0865
     38 H13         3.2080   -4.0550   -4.2571 H         1 <0>         0.0613
     39 H14         3.9156   -2.5150   -3.7130 H         1 <0>         0.0567
     40 O5          5.2465   -3.3492   -5.9944 O.co2     1 <0>        -0.7900
     41 O6          3.5860   -6.0169   -0.2057 O.co2     1 <0>        -0.7665
@<TRIPOS>BOND
     1    1    2 1
     2    1   27 1
     3    1   28 1
     4    1   29 1
     5    2   25 1
     6    2    3 am
     7    3    4 2
     8    3    5 1
     9    5    6 2
    10    5   24 1
    11    6    7 1
    12    6   30 1
    13    7   12 ar
    14    7    8 ar
    15    8    9 ar
    16    8   31 1
    17    9   10 ar
    18    9   32 1
    19   10   11 ar
    20   10   13 1
    21   11   12 ar
    22   11   33 1
    23   12   34 1
    24   13   14 2
    25   13   15 am
    26   15   16 1
    27   15   35 1
    28   16   17 1
    29   16   18 1
    30   16   22 1
    31   18   19 1
    32   18   36 1
    33   18   37 1
    34   19   20 1
    35   19   38 1
    36   19   39 1
    37   20   21 2
    38   20   40 1
    39   22   23 2
    40   22   41 1
    41   24   25 1
    42   25   26 2
@<TRIPOS>MOLECULE
ZINC17781847
   41    44     0     0     0
SMALL
USER_CHARGES
(5R)-5-(4-hydroxy-3-methoxy-phenyl)-1,5,7,8,9,10-hexahydropyrimido[4,5-b]quinoline-2,4,6-trione
@<TRIPOS>ATOM
      1 C1         -2.3605    5.2398    0.0507 C.3       1 <0>         0.0254
      2 O1         -2.4214    3.8121    0.0444 O.3       1 <0>        -0.3193
      3 C2         -1.2371    3.1437    0.0304 C.ar      1 <0>         0.0764
      4 C3         -0.0431    3.8467    0.0228 C.ar      1 <0>        -0.1391
      5 C4          1.1599    3.1657    0.0080 C.ar      1 <0>        -0.0040
      6 C5          1.1751    1.7833    0.0004 C.ar      1 <0>        -0.1042
      7 C6         -0.0126    1.0758    0.0080 C.ar      1 <0>        -0.1868
      8 C7         -1.2218    1.7523    0.0174 C.ar      1 <0>         0.0865
      9 O2         -2.3911    1.0578    0.0191 O.3       1 <0>        -0.5095
     10 C8          2.4575    3.9319   -0.0002 C.3       1 <0>         0.1252
     11 H1          2.2686    5.0156   -0.0041 H         1 <0>         0.0539
     12 C9          3.2335    3.5977    1.2399 C.ar      1 <0>        -0.4451
     13 C10         4.2908    2.7401    1.1942 C.ar      1 <0>         0.3984
     14 N1          4.9773    2.4469    2.3478 N.ar      1 <0>        -0.7522
     15 C11         4.6119    3.0055    3.5164 C.ar      1 <0>         0.6236
     16 O3          5.2287    2.7348    4.5286 O.3       1 <0>        -0.6850
     17 N2          3.5736    3.8588    3.5811 N.ar      1 <0>        -0.7769
     18 C12         2.8735    4.1718    2.4730 C.ar      1 <0>         0.5291
     19 O4          1.9341    4.9458    2.5387 O.3       1 <0>        -0.6742
     20 N3          4.6669    2.1728    0.0026 N.pl3     1 <0>        -0.6239
     21 C13         4.2820    2.7291   -1.1877 C.2       1 <0>         0.2408
     22 C14         3.2329    3.5763   -1.2432 C.2       1 <0>        -0.3227
     23 C15         2.8292    4.1507   -2.4616 C.2       1 <0>         0.3990
     24 O5          1.8908    4.9225   -2.4750 O.2       1 <0>        -0.5018
     25 C16         3.5370    3.8271   -3.7488 C.3       1 <0>        -0.1667
     26 C17         4.1357    2.4203   -3.6479 C.3       1 <0>        -0.1052
     27 C18         5.0613    2.3739   -2.4302 C.3       1 <0>        -0.0933
     28 H2         -3.3810    5.6503    0.0620 H         1 <0>         0.0872
     29 H3         -1.8350    5.5883   -0.8506 H         1 <0>         0.0517
     30 H4         -1.8186    5.5797    0.9456 H         1 <0>         0.0587
     31 H5         -0.0522    4.9266    0.0287 H         1 <0>         0.1279
     32 H6          2.1169    1.2548   -0.0111 H         1 <0>         0.1136
     33 H7          0.0021   -0.0041    0.0020 H         1 <0>         0.1169
     34 H8         -2.3776   -0.0421    0.0088 H         1 <0>         0.4089
     35 H9          5.2837    1.2620   -0.0025 H         1 <0>         0.4094
     36 H10         2.8195    3.8663   -4.5817 H         1 <0>         0.0812
     37 H11         4.3388    4.5603   -3.9208 H         1 <0>         0.0874
     38 H12         3.3260    1.6847   -3.5327 H         1 <0>         0.0711
     39 H13         4.7058    2.1980   -4.5620 H         1 <0>         0.0700
     40 H14         5.8814    3.0941   -2.5670 H         1 <0>         0.0886
     41 H15         5.4767    1.3608   -2.3254 H         1 <0>         0.0791
@<TRIPOS>BOND
     1    1    2 1
     2    1   28 1
     3    1   29 1
     4    1   30 1
     5    2    3 1
     6    3    8 ar
     7    3    4 ar
     8    4    5 ar
     9    4   31 1
    10    5    6 ar
    11    5   10 1
    12    6    7 ar
    13    6   32 1
    14    7    8 ar
    15    7   33 1
    16    8    9 1
    17    9   34 1
    18   10   11 1
    19   10   22 1
    20   10   12 1
    21   12   18 ar
    22   12   13 ar
    23   13   14 ar
    24   13   20 1
    25   14   15 ar
    26   15   16 1
    27   15   17 ar
    28   17   18 ar
    29   18   19 1
    30   20   21 1
    31   20   35 1
    32   21   27 1
    33   21   22 2
    34   22   23 1
    35   23   24 2
    36   23   25 1
    37   25   26 1
    38   25   36 1
    39   25   37 1
    40   26   27 1
    41   26   38 1
    42   26   39 1
    43   27   40 1
    44   27   41 1
@<TRIPOS>MOLECULE
ZINC13235826
   41    42     0     0     0
SMALL
USER_CHARGES

@<TRIPOS>ATOM
      1 C1         -0.0187    1.5258    0.0104 C.3       1 <0>        -0.1411
      2 C2          0.0021   -0.0041    0.0020 C.3       1 <0>        -0.1076
      3 H1          0.5293   -0.3651    0.8851 H         1 <0>         0.1183
      4 C3         -1.4117   -0.5257    0.0127 C.2       1 <0>         0.5443
      5 O1         -1.9274   -0.9011   -1.0188 O.2       1 <0>        -0.5166
      6 N1         -2.1031   -0.5750    1.1686 N.am      1 <0>        -0.7203
      7 C4         -3.4775   -1.0820    1.1790 C.3       1 <0>         0.1482
      8 H2         -3.9723   -0.8053    0.2480 H         1 <0>         0.1131
      9 C5         -3.4554   -2.6140    1.3095 C.3       1 <0>        -0.1485
     10 C6         -4.8995   -3.0935    1.6322 C.3       1 <0>        -0.5667
     11 S1         -5.4263   -1.7952    2.8288 S.o2      1 <0>         2.3764
     12 O2         -5.1364   -2.2372    4.1478 O.2       1 <0>        -0.9343
     13 O3         -6.7452   -1.3765    2.5057 O.2       1 <0>        -0.9381
     14 C7         -4.2446   -0.4630    2.3723 C.3       1 <0>        -0.5949
     15 S2          0.8511   -0.5891   -1.4904 S.3       1 <0>         0.0202
     16 C8          2.5089   -0.0285   -1.2851 C.ar      1 <0>         0.2525
     17 N2          3.4123   -0.2949   -2.2207 N.ar      1 <0>        -0.5770
     18 C9          4.6608    0.1303   -2.0605 C.ar      1 <0>         0.4211
     19 O4          5.6040   -0.1264   -2.9992 O.3       1 <0>        -0.6586
     20 C10         4.9816    0.8469   -0.9068 C.ar      1 <0>        -0.0379
     21 N3          4.0408    1.0811   -0.0114 N.ar      1 <0>        -0.2063
     22 N4          2.8391    0.6600   -0.1992 N.ar      1 <0>        -0.4073
     23 C11         6.3860    1.3469   -0.6857 C.3       1 <0>        -0.0106
     24 C12         6.5285    2.7480   -1.2835 C.3       1 <0>        -0.1652
     25 C13         7.9328    3.2481   -1.0624 C.2       1 <0>         0.4976
     26 O5          8.7444    2.5486   -0.4806 O.co2     1 <0>        -0.7015
     27 O6          8.2573    4.3521   -1.4653 O.co2     1 <0>        -0.7188
     28 H3          1.0039    1.9031    0.0027 H         1 <0>         0.1000
     29 H4         -0.5459    1.8868   -0.8726 H         1 <0>         0.0630
     30 H5         -0.5289    1.8773    0.9072 H         1 <0>         0.0580
     31 H6         -1.6907   -0.2747    1.9936 H         1 <0>         0.4083
     32 H7         -3.1208   -3.0586    0.3723 H         1 <0>         0.1107
     33 H8         -2.7821   -2.9052    2.1157 H         1 <0>         0.0941
     34 H9         -5.5262   -3.0851    0.7404 H         1 <0>         0.1417
     35 H10        -4.8929   -4.0791    2.0976 H         1 <0>         0.1433
     36 H11        -3.5663   -0.2481    3.1980 H         1 <0>         0.1471
     37 H12        -4.7776    0.4365    2.0643 H         1 <0>         0.1492
     38 H13         6.5938    1.3852    0.3836 H         1 <0>         0.0615
     39 H14         7.0923    0.6720   -1.1692 H         1 <0>         0.0768
     40 H15         6.3206    2.7097   -2.3528 H         1 <0>         0.0561
     41 H16         5.8222    3.4229   -0.8000 H         1 <0>         0.0497
@<TRIPOS>BOND
     1    1    2 1
     2    1   28 1
     3    1   29 1
     4    1   30 1
     5    2    3 1
     6    2    4 1
     7    2   15 1
     8    4    5 2
     9    4    6 am
    10    6    7 1
    11    6   31 1
    12    7    8 1
    13    7   14 1
    14    7    9 1
    15    9   10 1
    16    9   32 1
    17    9   33 1
    18   10   11 1
    19   10   34 1
    20   10   35 1
    21   11   12 2
    22   11   13 2
    23   11   14 1
    24   14   36 1
    25   14   37 1
    26   15   16 1
    27   16   17 ar
    28   16   22 ar
    29   17   18 ar
    30   18   19 1
    31   18   20 ar
    32   20   21 ar
    33   20   23 1
    34   21   22 ar
    35   23   24 1
    36   23   38 1
    37   23   39 1
    38   24   25 1
    39   24   40 1
    40   24   41 1
    41   25   26 2
    42   25   27 1
@<TRIPOS>MOLECULE
ZINC06813465
   34    36     0     0     0
SMALL
USER_CHARGES

@<TRIPOS>ATOM
      1 C1         -0.0184    1.5028    0.0103 C.3       1 <0>        -0.0504
      2 C2          0.0021   -0.0041    0.0020 C.2       1 <0>         0.0064
      3 N1          0.0097   -0.8438   -1.0138 N.2       1 <0>        -0.2310
      4 N2          0.0274   -2.0862   -0.7843 N.2       1 <0>        -0.3115
      5 C3          0.0385   -2.5679    0.4430 C.2       1 <0>         0.2611
      6 N3          0.0581   -3.8929    0.8650 N.am      1 <0>        -0.6086
      7 C4          0.0678   -4.8892   -0.0426 C.2       1 <0>         0.5355
      8 O1          0.0594   -4.6302   -1.2274 O.2       1 <0>        -0.4426
      9 C5          0.0890   -6.3249    0.4147 C.3       1 <0>        -0.2050
     10 H1         -0.8038   -6.5016    1.0147 H         1 <0>         0.1326
     11 C6          0.0180   -7.2116   -0.8098 C.2       1 <0>         0.3621
     12 C7          1.0323   -8.1027   -1.0186 C.2       1 <0>        -0.4057
     13 C8          0.9162   -8.9773   -2.2419 C.3       1 <0>        -0.0223
     14 C9          2.2657   -9.5990   -2.5918 C.3       1 <0>        -0.1193
     15 C10         2.8311  -10.2592   -1.3289 C.3       1 <0>        -0.1140
     16 C11         3.2411   -9.1598   -0.3541 C.3       1 <0>        -0.0792
     17 C12         2.1027   -8.1884   -0.1318 C.2       1 <0>         0.3202
     18 N4          2.1955   -7.4325    0.9512 N.2       1 <0>        -0.6888
     19 C13         1.3018   -6.5205    1.3027 C.2       1 <0>         0.5313
     20 O2          1.4512   -5.8606    2.3120 O.2       1 <0>        -0.5421
     21 O3         -1.0147   -7.1249   -1.6680 O.3       1 <0>        -0.5948
     22 S1          0.0307   -1.1577    1.3670 S.3       1 <0>         0.0573
     23 H2          1.0042    1.8801    0.0026 H         1 <0>         0.0892
     24 H3         -0.5455    1.8639   -0.8728 H         1 <0>         0.0960
     25 H4         -0.5286    1.8543    0.9071 H         1 <0>         0.0856
     26 H5          0.1947   -9.7711   -2.0484 H         1 <0>         0.0434
     27 H6          0.5697   -8.3753   -3.0819 H         1 <0>         0.0571
     28 H7          2.1338  -10.3492   -3.3714 H         1 <0>         0.0558
     29 H8          2.9488   -8.8236   -2.9387 H         1 <0>         0.0587
     30 H9          2.0686  -10.8898   -0.8715 H         1 <0>         0.0636
     31 H10         3.7006  -10.8631   -1.5882 H         1 <0>         0.0610
     32 H11         3.5195   -9.6104    0.5986 H         1 <0>         0.0817
     33 H12         4.0979   -8.6218   -0.7597 H         1 <0>         0.0816
     34 H13         0.0648   -4.1000    1.8127 H         1 <0>         0.4350
@<TRIPOS>BOND
     1    1    2 1
     2    1   23 1
     3    1   24 1
     4    1   25 1
     5    2   22 1
     6    2    3 2
     7    3    4 1
     8    4    5 2
     9    5    6 1
    10    5   22 1
    11    6    7 am
    12    6   34 1
    13    7    8 2
    14    7    9 1
    15    9   10 1
    16    9   19 1
    17    9   11 1
    18   11   12 2
    19   11   21 1
    20   12   17 1
    21   12   13 1
    22   13   14 1
    23   13   26 1
    24   13   27 1
    25   14   15 1
    26   14   28 1
    27   14   29 1
    28   15   16 1
    29   15   30 1
    30   15   31 1
    31   16   17 1
    32   16   32 1
    33   16   33 1
    34   17   18 2
    35   18   19 1
    36   19   20 2
@<TRIPOS>MOLECULE
ZINC62387253
   40    40     0     0     0
SMALL
USER_CHARGES

@<TRIPOS>ATOM
      1 C1          0.4411   -2.6403   -1.4086 C.3       1 <0>        -0.1477
      2 C2         -0.1583   -1.2766   -1.7578 C.3       1 <0>        -0.1629
      3 C3          0.6995   -0.1696   -1.1416 C.3       1 <0>         0.0354
      4 H1          0.7643   -0.3177   -0.0636 H         1 <0>         0.1029
      5 C4          0.0718    1.1703   -1.4277 C.2       1 <0>         0.4925
      6 O1         -1.0356    1.4308   -0.9893 O.co2     1 <0>        -0.6831
      7 O2          0.6715    1.9938   -2.0975 O.co2     1 <0>        -0.6634
      8 N1          2.0438   -0.2131   -1.7222 N.pl3     1 <0>        -0.4055
      9 C5          3.0991   -0.5123   -0.9273 C.2       1 <0>         0.1679
     10 C6          4.3528   -0.5613   -1.4308 C.2       1 <0>        -0.3254
     11 C7          4.5580   -0.2963   -2.8033 C.2       1 <0>         0.3615
     12 O3          5.6815   -0.3343   -3.2849 O.2       1 <0>        -0.5773
     13 C8          3.4347    0.0140   -3.6110 C.2       1 <0>        -0.0336
     14 C9          2.2037    0.0421   -3.0470 C.2       1 <0>         0.1676
     15 C10         1.0009    0.3647   -3.8957 C.3       1 <0>         0.1056
     16 N2          0.8723   -0.6361   -4.9633 N.3       1 <0>        -0.5020
     17 C11         0.6736   -1.9799   -4.4041 C.3       1 <0>         0.0220
     18 C12        -0.2147   -0.2842   -5.8867 C.3       1 <0>        -0.0024
     19 C13        -0.1610   -1.1860   -7.0928 C.2       1 <0>         0.5013
     20 O4          0.7027   -2.0425   -7.1756 O.co2     1 <0>        -0.6773
     21 O5         -0.9813   -1.0591   -7.9859 O.co2     1 <0>        -0.7183
     22 O6          3.5911    0.2758   -4.9374 O.3       1 <0>        -0.4385
     23 C14         2.8729   -0.7933    0.5359 C.3       1 <0>        -0.1218
     24 H2          1.4549   -2.7036   -1.8039 H         1 <0>         0.0538
     25 H3          0.4653   -2.7599   -0.3254 H         1 <0>         0.0470
     26 H4         -0.1700   -3.4289   -1.8476 H         1 <0>         0.0559
     27 H5         -0.1825   -1.1570   -2.8410 H         1 <0>         0.1067
     28 H6         -1.1721   -1.2132   -1.3625 H         1 <0>         0.0817
     29 H7          5.1889   -0.8003   -0.7904 H         1 <0>         0.1357
     30 H8          0.1046    0.3516   -3.2755 H         1 <0>         0.0596
     31 H9          1.1226    1.3537   -4.3375 H         1 <0>         0.0930
     32 H10        -0.3176   -2.0437   -3.9552 H         1 <0>         0.0134
     33 H11         0.7609   -2.7207   -5.1989 H         1 <0>         0.0906
     34 H12         1.4301   -2.1723   -3.6433 H         1 <0>         0.0481
     35 H13        -1.1735   -0.4076   -5.3831 H         1 <0>         0.0219
     36 H14        -0.1013    0.7528   -6.2030 H         1 <0>         0.0675
     37 H15         4.5073    0.2269   -5.2426 H         1 <0>         0.3831
     38 H16         2.6420   -1.8499    0.6715 H         1 <0>         0.0816
     39 H17         3.7731   -0.5432    1.0973 H         1 <0>         0.0840
     40 H18         2.0401   -0.1901    0.8973 H         1 <0>         0.0787
@<TRIPOS>BOND
     1    1    2 1
     2    1   24 1
     3    1   25 1
     4    1   26 1
     5    2    3 1
     6    2   27 1
     7    2   28 1
     8    3    4 1
     9    3    5 1
    10    3    8 1
    11    5    6 2
    12    5    7 1
    13    8   14 1
    14    8    9 1
    15    9   10 2
    16    9   23 1
    17   10   11 1
    18   10   29 1
    19   11   12 2
    20   11   13 1
    21   13   14 2
    22   13   22 1
    23   14   15 1
    24   15   16 1
    25   15   30 1
    26   15   31 1
    27   16   17 1
    28   16   18 1
    29   17   32 1
    30   17   33 1
    31   17   34 1
    32   18   19 1
    33   18   35 1
    34   18   36 1
    35   19   20 2
    36   19   21 1
    37   22   37 1
    38   23   38 1
    39   23   39 1
    40   23   40 1
@<TRIPOS>MOLECULE
ZINC13075876
   38    40     0     0     0
SMALL
USER_CHARGES
(2S)-2-[(5E)-5-[[5-(2-chlorophenyl)-2-furyl]methylene]-4-oxo-2-thioxo-thiazolidin-3-yl]butanedioic acid
@<TRIPOS>ATOM
      1 C1         -3.4459    5.3590   -2.5352 C.ar      1 <0>        -0.1119
      2 C2         -3.4188    6.5423   -1.8175 C.ar      1 <0>        -0.1011
      3 C3         -2.5338    6.7017   -0.7663 C.ar      1 <0>        -0.1183
      4 C4         -1.6740    5.6775   -0.4223 C.ar      1 <0>        -0.0125
      5 C5         -1.6929    4.4816   -1.1462 C.ar      1 <0>        -0.0099
      6 C6         -2.5900    4.3290   -2.2066 C.ar      1 <0>        -0.0648
      7 C7         -0.7744    3.3837   -0.7883 C.2       1 <0>         0.0398
      8 C8          0.5847    3.5009   -0.6045 C.2       1 <0>        -0.1925
      9 C9          1.0639    2.2294   -0.2791 C.2       1 <0>        -0.1655
     10 C10        -0.0274    1.3791   -0.2766 C.2       1 <0>        -0.0001
     11 O1         -1.1241    2.0993   -0.5922 O.3       1 <0>        -0.0810
     12 C11         0.0021   -0.0041    0.0020 C.2       1 <0>         0.0488
     13 C12        -1.1653   -0.7031    0.1125 C.2       1 <0>        -0.1825
     14 C13        -2.5103   -0.2247    0.1544 C.2       1 <0>         0.5348
     15 O2         -2.7548    0.9666    0.0887 O.2       1 <0>        -0.4205
     16 N1         -3.4821   -1.1141    0.2619 N.am      1 <0>        -0.4685
     17 C14        -3.2100   -2.4355    0.3421 C.2       1 <0>         0.3222
     18 S1         -4.2991   -3.7478    0.4927 S.2       1 <0>        -0.3249
     19 S2         -1.4262   -2.4660    0.2518 S.3       1 <0>        -0.0124
     20 C15        -4.8745   -0.6604    0.3018 C.3       1 <0>         0.0947
     21 H1         -4.9048    0.4265    0.2253 H         1 <0>         0.1115
     22 C16        -5.6450   -1.2756   -0.8681 C.3       1 <0>        -0.1696
     23 C17        -5.0911   -0.7489   -2.1669 C.2       1 <0>         0.4622
     24 O3         -4.1741    0.0378   -2.1577 O.co2     1 <0>        -0.6368
     25 C18        -5.5060   -1.0904    1.6008 C.2       1 <0>         0.4762
     26 O4         -4.8593   -1.7121    2.4102 O.co2     1 <0>        -0.6244
     27 Cl1        -0.5686    5.8765    0.9014 Cl        1 <0>        -0.0651
     28 H2         -4.1396    5.2419   -3.3546 H         1 <0>         0.1354
     29 H3         -4.0922    7.3450   -2.0793 H         1 <0>         0.1324
     30 H4         -2.5183    7.6278   -0.2108 H         1 <0>         0.1347
     31 H5         -2.6127    3.4065   -2.7678 H         1 <0>         0.1444
     32 H6          1.1697    4.4042   -0.6946 H         1 <0>         0.1494
     33 H7          2.0891    1.9618   -0.0697 H         1 <0>         0.1554
     34 H8          0.9482   -0.5095    0.1278 H         1 <0>         0.1728
     35 H9         -5.5405   -2.3602   -0.8418 H         1 <0>         0.0952
     36 H10        -6.6992   -1.0101   -0.7886 H         1 <0>         0.0907
     37 O5         -5.6164   -1.1537   -3.3339 O.co2     1 <0>        -0.7834
     38 O6         -6.7869   -0.7827    1.8585 O.co2     1 <0>        -0.7552
@<TRIPOS>BOND
     1    1    6 ar
     2    1    2 ar
     3    1   28 1
     4    2    3 ar
     5    2   29 1
     6    3    4 ar
     7    3   30 1
     8    4    5 ar
     9    4   27 1
    10    5    6 ar
    11    5    7 1
    12    6   31 1
    13    7   11 1
    14    7    8 2
    15    8    9 1
    16    8   32 1
    17    9   10 2
    18    9   33 1
    19   10   11 1
    20   10   12 1
    21   12   13 2
    22   12   34 1
    23   13   19 1
    24   13   14 1
    25   14   15 2
    26   14   16 am
    27   16   17 1
    28   16   20 1
    29   17   18 2
    30   17   19 1
    31   20   21 1
    32   20   22 1
    33   20   25 1
    34   22   23 1
    35   22   35 1
    36   22   36 1
    37   23   24 2
    38   23   37 1
    39   25   26 2
    40   25   38 1
@<TRIPOS>MOLECULE
ZINC19794631
   46    48     0     0     0
SMALL
USER_CHARGES
4-[(2R)-2-(2-fluorophenyl)-4-hydroxy-3-(4-nitrobenzoyl)-5-oxo-2H-pyrrol-1-yl]butanoic acid
@<TRIPOS>ATOM
      1 C1          2.6450    1.6580   -1.1951 C.ar      1 <0>        -0.1303
      2 C2          1.5014    2.4331   -1.2507 C.ar      1 <0>        -0.1058
      3 C3          0.2733    1.8761   -0.9493 C.ar      1 <0>        -0.1567
      4 C4          0.1882    0.5409   -0.5918 C.ar      1 <0>         0.0994
      5 C5          1.3338   -0.2342   -0.5368 C.ar      1 <0>        -0.0996
      6 C6          2.5612    0.3251   -0.8388 C.ar      1 <0>        -0.0728
      7 C7          1.2429   -1.6872   -0.1475 C.3       1 <0>         0.2624
      8 H1          0.4241   -1.7982    0.5786 H         1 <0>         0.0748
      9 C8          1.0364   -2.5423   -1.3759 C.2       1 <0>        -0.5104
     10 C9          2.0949   -3.3829   -1.4491 C.2       1 <0>         0.2780
     11 C10         3.0028   -3.1204   -0.3123 C.2       1 <0>         0.5105
     12 O1          4.0420   -3.7124   -0.0988 O.2       1 <0>        -0.5299
     13 N1          2.5078   -2.1293    0.4511 N.am      1 <0>        -0.6059
     14 C11         3.1224   -1.5878    1.6657 C.3       1 <0>         0.1318
     15 C12         2.6219   -2.3688    2.8824 C.3       1 <0>        -0.1141
     16 C13         3.2638   -1.8033    4.1509 C.3       1 <0>        -0.1532
     17 C14         2.7707   -2.5726    5.3493 C.2       1 <0>         0.4609
     18 O2          1.9864   -3.4801    5.2037 O.co2     1 <0>        -0.6378
     19 O3          3.2029   -2.2496    6.5784 O.co2     1 <0>        -0.7854
     20 O4          2.2909   -4.3148   -2.4099 O.3       1 <0>        -0.6513
     21 C15        -0.0924   -2.4745   -2.3086 C.2       1 <0>         0.5033
     22 O5          0.0894   -2.1230   -3.4591 O.2       1 <0>        -0.4627
     23 C16        -1.4519   -2.8335   -1.8513 C.ar      1 <0>        -0.0768
     24 C17        -1.6547   -3.2954   -0.5490 C.ar      1 <0>        -0.0597
     25 C18        -2.9263   -3.6234   -0.1273 C.ar      1 <0>        -0.0643
     26 C19        -3.9982   -3.5062   -0.9948 C.ar      1 <0>        -0.0392
     27 C20        -3.8035   -3.0541   -2.2882 C.ar      1 <0>        -0.0709
     28 C21        -2.5380   -2.7176   -2.7214 C.ar      1 <0>        -0.0801
     29 N2         -5.3590   -3.8664   -0.5372 N.pl3     1 <0>         0.0337
     30 O6         -6.3043   -3.7647   -1.2985 O.2       1 <0>        -0.1745
     31 O7         -5.5335   -4.2645    0.6006 O.3       1 <0>        -0.1635
     32 F1         -1.0120   -0.0046   -0.2964 F         1 <0>        -0.1386
     33 H2          3.6045    2.0941   -1.4309 H         1 <0>         0.1236
     34 H3          1.5680    3.4742   -1.5299 H         1 <0>         0.1245
     35 H4         -0.6203    2.4807   -0.9968 H         1 <0>         0.1281
     36 H5          3.4551   -0.2795   -0.7960 H         1 <0>         0.1293
     37 H6          4.2163   -1.6799    1.5955 H         1 <0>         0.0774
     38 H7          2.8499   -0.5275    1.7732 H         1 <0>         0.0714
     39 H8          1.5280   -2.2766    2.9526 H         1 <0>         0.0625
     40 H9          2.8944   -3.4291    2.7750 H         1 <0>         0.0667
     41 H10         4.3577   -1.8955    4.0807 H         1 <0>         0.0637
     42 H11         2.9914   -0.7430    4.2584 H         1 <0>         0.0620
     43 H12        -0.8183   -3.3919    0.1274 H         1 <0>         0.1608
     44 H13        -3.0852   -3.9768    0.8808 H         1 <0>         0.1563
     45 H14        -4.6444   -2.9650   -2.9600 H         1 <0>         0.1505
     46 H15        -2.3874   -2.3657   -3.7313 H         1 <0>         0.1518
@<TRIPOS>BOND
     1    1    6 ar
     2    1    2 ar
     3    1   33 1
     4    2    3 ar
     5    2   34 1
     6    3    4 ar
     7    3   35 1
     8    4    5 ar
     9    4   32 1
    10    5    6 ar
    11    5    7 1
    12    6   36 1
    13    7    8 1
    14    7   13 1
    15    7    9 1
    16    9   10 2
    17    9   21 1
    18   10   11 1
    19   10   20 1
    20   11   12 2
    21   11   13 am
    22   13   14 1
    23   14   15 1
    24   14   37 1
    25   14   38 1
    26   15   16 1
    27   15   39 1
    28   15   40 1
    29   16   17 1
    30   16   41 1
    31   16   42 1
    32   17   18 2
    33   17   19 1
    34   21   22 2
    35   21   23 1
    36   23   28 ar
    37   23   24 ar
    38   24   25 ar
    39   24   43 1
    40   25   26 ar
    41   25   44 1
    42   26   27 ar
    43   26   29 1
    44   27   28 ar
    45   27   45 1
    46   28   46 1
    47   29   30 2
    48   29   31 1
@<TRIPOS>MOLECULE
ZINC13276773
   46    49     0     0     0
SMALL
USER_CHARGES

@<TRIPOS>ATOM
      1 C1          0.7973   -1.6302   -0.0559 C.3       1 <0>        -0.1391
      2 S1         -0.0645   -0.0378   -0.1649 S.3       1 <0>        -0.1450
      3 C2         -1.7712   -0.4718   -0.1053 C.ar      1 <0>        -0.0864
      4 C3         -2.1473   -1.8048    0.0087 C.ar      1 <0>        -0.1195
      5 C4         -3.4857   -2.1412    0.0551 C.ar      1 <0>        -0.0682
      6 C5         -4.4515   -1.1535   -0.0116 C.ar      1 <0>        -0.0655
      7 C6         -4.0809    0.1741   -0.1256 C.ar      1 <0>        -0.0966
      8 C7         -2.7443    0.5185   -0.1663 C.ar      1 <0>        -0.0998
      9 C8         -5.9111   -1.5247    0.0393 C.3       1 <0>         0.2557
     10 H1         -6.5263   -0.6592   -0.2068 H         1 <0>         0.0724
     11 C9         -6.2679   -2.0415    1.4136 C.2       1 <0>        -0.4782
     12 C10        -6.7022   -3.3163    1.2509 C.2       1 <0>         0.2936
     13 C11        -6.6472   -3.6671   -0.1847 C.2       1 <0>         0.5116
     14 O1         -6.9713   -4.7403   -0.6532 O.2       1 <0>        -0.5207
     15 N1         -6.1857   -2.6213   -0.8965 N.am      1 <0>        -0.5634
     16 C12        -6.0005   -2.5856   -2.2819 C.ar      1 <0>         0.1518
     17 C13        -4.7881   -2.9736   -2.8292 C.ar      1 <0>        -0.0589
     18 C14        -4.6086   -2.9365   -4.2136 C.ar      1 <0>        -0.1253
     19 C15        -5.6532   -2.5081   -5.0380 C.ar      1 <0>        -0.0755
     20 C16        -6.8558   -2.1235   -4.4835 C.ar      1 <0>        -0.1273
     21 C17        -7.0358   -2.1657   -3.1118 C.ar      1 <0>        -0.0338
     22 Cl1        -8.5559   -1.6864   -2.4237 Cl        1 <0>        -0.0793
     23 C18        -3.3211   -3.3474   -4.8040 C.2       1 <0>         0.5258
     24 O2         -2.4084   -3.7215   -4.0809 O.co2     1 <0>        -0.6805
     25 O3         -3.1660   -3.3141   -6.0167 O.co2     1 <0>        -0.6903
     26 O4         -7.1183   -4.1353    2.2425 O.3       1 <0>        -0.6058
     27 C19        -6.1682   -1.3331    2.6338 C.2       1 <0>         0.4508
     28 O5         -6.3920   -1.8989    3.6841 O.2       1 <0>        -0.5125
     29 C20        -5.7843    0.1242    2.6298 C.3       1 <0>        -0.1908
     30 C21        -4.7145    0.5756    3.6262 C.3       1 <0>        -0.1559
     31 C22        -6.1782    0.9619    3.8480 C.3       1 <0>        -0.1675
     32 H2          1.8741   -1.4633   -0.0853 H         1 <0>         0.1012
     33 H3          0.5316   -2.1239    0.8789 H         1 <0>         0.0809
     34 H4          0.5042   -2.2602   -0.8957 H         1 <0>         0.0889
     35 H5         -1.3937   -2.5767    0.0606 H         1 <0>         0.1187
     36 H6         -3.7788   -3.1770    0.1434 H         1 <0>         0.1188
     37 H7         -4.8378    0.9427   -0.1778 H         1 <0>         0.1220
     38 H8         -2.4556    1.5558   -0.2501 H         1 <0>         0.1197
     39 H9         -3.9846   -3.3033   -2.1872 H         1 <0>         0.1365
     40 H10        -5.5182   -2.4780   -6.1091 H         1 <0>         0.1355
     41 H11        -7.6614   -1.7926   -5.1221 H         1 <0>         0.1272
     42 H12        -5.8033    0.6127    1.6556 H         1 <0>         0.1089
     43 H13        -4.2884   -0.1815    4.2846 H         1 <0>         0.0920
     44 H14        -4.0294    1.3612    3.3075 H         1 <0>         0.0900
     45 H15        -6.4561    2.0016    3.6753 H         1 <0>         0.0874
     46 H16        -6.7151    0.4589    4.6523 H         1 <0>         0.0964
@<TRIPOS>BOND
     1    1    2 1
     2    1   32 1
     3    1   33 1
     4    1   34 1
     5    2    3 1
     6    3    8 ar
     7    3    4 ar
     8    4    5 ar
     9    4   35 1
    10    5    6 ar
    11    5   36 1
    12    6    7 ar
    13    6    9 1
    14    7    8 ar
    15    7   37 1
    16    8   38 1
    17    9   10 1
    18    9   15 1
    19    9   11 1
    20   11   12 2
    21   11   27 1
    22   12   13 1
    23   12   26 1
    24   13   14 2
    25   13   15 am
    26   15   16 1
    27   16   21 ar
    28   16   17 ar
    29   17   18 ar
    30   17   39 1
    31   18   19 ar
    32   18   23 1
    33   19   20 ar
    34   19   40 1
    35   20   21 ar
    36   20   41 1
    37   21   22 1
    38   23   24 2
    39   23   25 1
    40   27   28 2
    41   27   29 1
    42   29   31 1
    43   29   30 1
    44   29   42 1
    45   30   31 1
    46   30   43 1
    47   30   44 1
    48   31   45 1
    49   31   46 1
@<TRIPOS>MOLECULE
ZINC40564504
   43    45     0     0     0
SMALL
USER_CHARGES

@<TRIPOS>ATOM
      1 C1         -0.0166    1.3719    0.0096 C.ar      1 <0>        -0.0655
      2 C2          1.1720    2.0864    0.0021 C.ar      1 <0>        -0.1182
      3 C3          2.3900    1.4243   -0.0131 C.ar      1 <0>        -0.0501
      4 C4          2.4309    0.0484   -0.0208 C.ar      1 <0>         0.0056
      5 C5          1.2320   -0.6854   -0.0133 C.ar      1 <0>         0.0616
      6 C6          0.0021   -0.0041    0.0020 C.ar      1 <0>        -0.0985
      7 C7          1.2636   -2.1484   -0.0214 C.2       1 <0>        -0.0275
      8 C8          0.5452   -2.9824    0.8597 C.2       1 <0>        -0.1475
      9 C9          0.8367   -4.2715    0.5347 C.2       1 <0>        -0.1674
     10 C10         1.7727   -4.2098   -0.5927 C.2       1 <0>         0.0339
     11 O1          1.9770   -2.9032   -0.8730 O.3       1 <0>        -0.0944
     12 C11         2.3386   -5.2897   -1.2511 C.2       1 <0>         0.0150
     13 C12         3.2239   -5.0751   -2.3207 C.2       1 <0>        -0.2289
     14 C13         3.9329   -6.0799   -3.1625 C.2       1 <0>         0.5343
     15 O2          3.7993   -7.2740   -2.9872 O.2       1 <0>        -0.4677
     16 N1          4.7171   -5.5943   -4.1136 N.am      1 <0>        -0.4755
     17 C14         4.8187   -4.2573   -4.2528 C.2       1 <0>         0.2618
     18 S1          5.7515   -3.3799   -5.3890 S.2       1 <0>        -0.2516
     19 S2          3.7468   -3.6186   -2.9808 S.3       1 <0>         0.1299
     20 C15         5.4612   -6.4945   -4.9981 C.3       1 <0>         0.0456
     21 H1          5.2476   -7.5284   -4.7273 H         1 <0>         0.1017
     22 C16         5.0384   -6.2493   -6.4480 C.3       1 <0>        -0.0997
     23 C17         3.5680   -6.6344   -6.6225 C.3       1 <0>        -0.1781
     24 C18         3.1515   -6.3928   -8.0506 C.2       1 <0>         0.4952
     25 O3          3.9562   -5.9534   -8.8542 O.co2     1 <0>        -0.6895
     26 O4          2.0099   -6.6369   -8.4023 O.co2     1 <0>        -0.7192
     27 C19         6.9382   -6.2324   -4.8544 C.2       1 <0>         0.5091
     28 O5          7.3328   -5.3733   -4.0845 O.co2     1 <0>        -0.6764
     29 O6          7.7386   -6.8794   -5.5081 O.co2     1 <0>        -0.6783
     30 N2          3.7328   -0.6559   -0.0375 N.pl3     1 <0>        -0.0283
     31 O7          4.8547    0.0339   -0.0449 O.2       1 <0>        -0.1786
     32 O8          3.7692   -1.9724   -0.0448 O.3       1 <0>        -0.1245
     33 H2         -0.9601    1.8972    0.0259 H         1 <0>         0.1474
     34 H3          1.1486    3.1661    0.0077 H         1 <0>         0.1488
     35 H4          3.3100    1.9901   -0.0192 H         1 <0>         0.1580
     36 H5         -0.9246   -0.5587    0.0082 H         1 <0>         0.1533
     37 H6         -0.1161   -2.6574    1.6493 H         1 <0>         0.1557
     38 H7          0.4550   -5.1621    1.0117 H         1 <0>         0.1637
     39 H8          2.0990   -6.2965   -0.9422 H         1 <0>         0.1771
     40 H9          5.1692   -5.1948   -6.6912 H         1 <0>         0.0916
     41 H10         5.6540   -6.8547   -7.1133 H         1 <0>         0.0880
     42 H11         3.4372   -7.6888   -6.3793 H         1 <0>         0.0517
     43 H12         2.9524   -6.0290   -5.9572 H         1 <0>         0.0366
@<TRIPOS>BOND
     1    1    6 ar
     2    1    2 ar
     3    1   33 1
     4    2    3 ar
     5    2   34 1
     6    3    4 ar
     7    3   35 1
     8    4    5 ar
     9    4   30 1
    10    5    6 ar
    11    5    7 1
    12    6   36 1
    13    7   11 1
    14    7    8 2
    15    8    9 1
    16    8   37 1
    17    9   10 2
    18    9   38 1
    19   10   11 1
    20   10   12 1
    21   12   13 2
    22   12   39 1
    23   13   19 1
    24   13   14 1
    25   14   15 2
    26   14   16 am
    27   16   17 1
    28   16   20 1
    29   17   18 2
    30   17   19 1
    31   20   21 1
    32   20   22 1
    33   20   27 1
    34   22   23 1
    35   22   40 1
    36   22   41 1
    37   23   24 1
    38   23   42 1
    39   23   43 1
    40   24   25 2
    41   24   26 1
    42   27   28 2
    43   27   29 1
    44   30   31 2
    45   30   32 1
@<TRIPOS>MOLECULE
ZINC59000195
   53    56     0     0     0
SMALL
USER_CHARGES

@<TRIPOS>ATOM
      1 C1          2.2394   -1.7665    1.8622 C.3       1 <0>        -0.1449
      2 C2          1.1650   -1.5347    0.8311 C.ar      1 <0>         0.0302
      3 C3          1.2777   -2.1062   -0.4231 C.ar      1 <0>        -0.1979
      4 C4          0.2910   -1.8941   -1.3720 C.ar      1 <0>         0.1546
      5 C5         -0.8125   -1.1052   -1.0598 C.ar      1 <0>         0.0756
      6 C6         -0.9191   -0.5357    0.1985 C.ar      1 <0>        -0.0672
      7 C7          0.0666   -0.7560    1.1430 C.ar      1 <0>        -0.6684
      8 S1         -0.0746   -0.0366    2.7452 S.o2      1 <0>         2.6980
      9 O1         -1.2700    0.7317    2.7415 O.2       1 <0>        -0.9461
     10 O2          0.1573   -1.0805    3.6810 O.2       1 <0>        -0.9615
     11 N1          1.1765    1.0355    2.9124 N.pl3     1 <0>        -1.0442
     12 C8          1.2150    2.1915    2.1295 C.ar      1 <0>         0.1513
     13 C9          0.9663    2.1157    0.7642 C.ar      1 <0>        -0.2253
     14 C10         1.0048    3.2585   -0.0107 C.ar      1 <0>        -0.0828
     15 C11         1.2905    4.4802    0.5684 C.ar      1 <0>        -0.1879
     16 C12         1.5400    4.5628    1.9323 C.ar      1 <0>         0.2308
     17 C13         1.4961    3.4178    2.7148 C.ar      1 <0>        -0.1533
     18 N2          1.8305    5.8018    2.5182 N.am      1 <0>        -0.4659
     19 C14         2.1047    6.0251    3.8648 C.2       1 <0>         0.1224
     20 C15         2.3299    7.3335    4.0227 C.2       1 <0>         0.1668
     21 N3          2.1986    7.9395    2.7770 N.am      1 <0>        -0.4999
     22 C16         1.8989    6.9840    1.8758 C.2       1 <0>         0.5980
     23 O3          1.7182    7.1594    0.6839 O.2       1 <0>        -0.6465
     24 C17         2.3625    9.3675    2.4940 C.3       1 <0>         0.1039
     25 C18         2.9056   10.2526    3.6176 C.3       1 <0>        -0.1893
     26 C19         1.4316   10.3425    3.2174 C.3       1 <0>        -0.1981
     27 O4          2.6329    7.9606    5.1927 O.3       1 <0>        -0.7720
     28 O5          2.1369    5.0804    4.8454 O.3       1 <0>        -0.7742
     29 O6         -1.7835   -0.8937   -1.9881 O.3       1 <0>        -0.3067
     30 C20        -2.8867   -0.0736   -1.5977 C.3       1 <0>         0.0183
     31 O7          0.4005   -2.4551   -2.6060 O.3       1 <0>        -0.3019
     32 C21         1.5600   -3.2520   -2.8558 C.3       1 <0>         0.0230
     33 H1          1.9529   -2.5993    2.5045 H         1 <0>         0.0972
     34 H2          3.1790   -2.0003    1.3616 H         1 <0>         0.0819
     35 H3          2.3633   -0.8677    2.4662 H         1 <0>         0.0747
     36 H4          2.1351   -2.7176   -0.6629 H         1 <0>         0.1429
     37 H5         -1.7743    0.0768    0.4432 H         1 <0>         0.1574
     38 H6          1.8825    0.8606    3.5542 H         1 <0>         0.4235
     39 H7          0.7430    1.1622    0.3086 H         1 <0>         0.1105
     40 H8          0.8115    3.1971   -1.0715 H         1 <0>         0.1116
     41 H9          1.3201    5.3719   -0.0402 H         1 <0>         0.1513
     42 H10         1.6850    3.4803    3.7763 H         1 <0>         0.1785
     43 H11         2.6544    9.6139    1.4731 H         1 <0>         0.1047
     44 H12         3.1408    9.7725    4.5674 H         1 <0>         0.1487
     45 H13         3.5550   11.0815    3.3361 H         1 <0>         0.0705
     46 H14         1.1112   11.2306    2.6727 H         1 <0>         0.0768
     47 H15         0.6971    9.9216    3.9040 H         1 <0>         0.0915
     48 H16        -3.3913   -0.5258   -0.7439 H         1 <0>         0.0568
     49 H17        -2.5238    0.9167   -1.3226 H         1 <0>         0.0647
     50 H18        -3.5865    0.0138   -2.4288 H         1 <0>         0.1016
     51 H19         2.4543   -2.6414   -2.7313 H         1 <0>         0.0592
     52 H20         1.5874   -4.0842   -2.1524 H         1 <0>         0.0565
     53 H21         1.5228   -3.6383   -3.8744 H         1 <0>         0.1007
@<TRIPOS>BOND
     1    1    2 1
     2    1   33 1
     3    1   34 1
     4    1   35 1
     5    2    7 ar
     6    2    3 ar
     7    3    4 ar
     8    3   36 1
     9    4    5 ar
    10    4   31 1
    11    5    6 ar
    12    5   29 1
    13    6    7 ar
    14    6   37 1
    15    7    8 1
    16    8    9 2
    17    8   10 2
    18    8   11 1
    19   11   12 1
    20   11   38 1
    21   12   17 ar
    22   12   13 ar
    23   13   14 ar
    24   13   39 1
    25   14   15 ar
    26   14   40 1
    27   15   16 ar
    28   15   41 1
    29   16   17 ar
    30   16   18 1
    31   17   42 1
    32   18   22 am
    33   18   19 1
    34   19   20 2
    35   19   28 1
    36   20   21 1
    37   20   27 1
    38   21   22 am
    39   21   24 1
    40   22   23 2
    41   24   26 1
    42   24   25 1
    43   24   43 1
    44   25   26 1
    45   25   44 1
    46   25   45 1
    47   26   46 1
    48   26   47 1
    49   29   30 1
    50   30   48 1
    51   30   49 1
    52   30   50 1
    53   31   32 1
    54   32   51 1
    55   32   52 1
    56   32   53 1
@<TRIPOS>MOLECULE
ZINC02573848
   18    18     0     0     0
SMALL
USER_CHARGES
3-bromo-5-hydroxy-2,6-dinitro-benzoic acid
@<TRIPOS>ATOM
      1 C1         -3.1177    2.9474    1.2296 C.ar      1 <0>        -0.2021
      2 C2         -1.9064    2.2688    1.2213 C.ar      1 <0>         0.3281
      3 C3         -1.3063    1.9364    0.0188 C.ar      1 <0>        -0.1466
      4 C4         -1.9200    2.2897   -1.1841 C.ar      1 <0>         0.0567
      5 C5         -3.1408    2.9666   -1.1665 C.ar      1 <0>        -0.1243
      6 C6         -3.7305    3.2936    0.0386 C.ar      1 <0>         0.0221
      7 Br1        -5.3801    4.2178    0.0609 Br        1 <0>        -0.0557
      8 N1         -3.7995    3.3392   -2.4386 N.pl3     1 <0>         0.0493
      9 O1         -3.5549    4.4127   -2.9594 O.2       1 <0>        -0.1475
     10 O2         -4.5861    2.5723   -2.9646 O.3       1 <0>        -0.1565
     11 C7         -1.2828    1.9434   -2.4712 C.2       1 <0>         0.4769
     12 O3         -1.5347    0.8831   -3.0078 O.co2     1 <0>        -0.5996
     13 N2         -0.0144    1.2138    0.0087 N.pl3     1 <0>         0.0656
     14 O4          0.0021   -0.0041    0.0020 O.2       1 <0>        -0.1676
     15 O5          1.0320    1.8371    0.0021 O.3       1 <0>        -0.1583
     16 H1         -3.5833    3.2057    2.1692 H         1 <0>         0.1451
     17 O6         -0.4223    2.8034   -3.0498 O.co2     1 <0>        -0.7184
     18 O7         -1.3093    1.9310    2.3945 O.3       1 <0>        -0.6673
@<TRIPOS>BOND
     1    1    6 ar
     2    1    2 ar
     3    1   16 1
     4    2    3 ar
     5    2   18 1
     6    3    4 ar
     7    3   13 1
     8    4    5 ar
     9    4   11 1
    10    5    6 ar
    11    5    8 1
    12    6    7 1
    13    8    9 2
    14    8   10 1
    15   11   12 2
    16   11   17 1
    17   13   14 2
    18   13   15 1
@<TRIPOS>MOLECULE
ZINC21811839
   29    29     0     0     0
SMALL
USER_CHARGES
2-(difluoromethylsulfonylamino)-4,5-dimethoxy-benzoic acid
@<TRIPOS>ATOM
      1 C1          1.7025   -3.0850   -0.8299 C.3       1 <0>         0.0310
      2 O1          3.0433   -2.5978   -0.7467 O.3       1 <0>        -0.3234
      3 C2          3.2039   -1.2584   -0.5677 C.ar      1 <0>         0.0106
      4 C3          2.0984   -0.4401   -0.4754 C.ar      1 <0>        -0.1092
      5 C4          2.2632    0.9382   -0.2913 C.ar      1 <0>        -0.1420
      6 C5          3.5568    1.4799   -0.2070 C.ar      1 <0>         0.2438
      7 C6          4.6605    0.6449   -0.2952 C.ar      1 <0>        -0.2821
      8 C7          4.4877   -0.7174   -0.4778 C.ar      1 <0>         0.1176
      9 O2          5.5716   -1.5300   -0.5692 O.3       1 <0>        -0.3201
     10 C8          6.8562   -0.9120   -0.4691 C.3       1 <0>         0.0289
     11 N1          3.7298    2.8482   -0.0299 N.2       1 <0>        -0.9304
     12 S1          5.0010    3.6228   -0.7554 S.o2      1 <0>         2.4613
     13 O3          4.8146    4.9964   -0.4431 O.2       1 <0>        -0.9644
     14 O4          6.1549    2.9273   -0.3038 O.2       1 <0>        -1.0159
     15 C9          4.7615    3.3480   -2.5324 C.3       1 <0>        -0.2610
     16 F1          5.8522    3.8700   -3.2362 F         1 <0>        -0.2257
     17 F2          4.6590    1.9754   -2.7824 F         1 <0>        -0.1910
     18 C10         1.0875    1.8157   -0.1927 C.2       1 <0>         0.4950
     19 O5          1.2335    3.0118   -0.0328 O.co2     1 <0>        -0.5898
     20 O6         -0.1523    1.2936   -0.2795 O.co2     1 <0>        -0.8023
     21 H1          1.7169   -4.1755   -0.9736 H         1 <0>         0.0806
     22 H2          1.1918   -2.6098   -1.6804 H         1 <0>         0.0477
     23 H3          1.1667   -2.8447    0.1003 H         1 <0>         0.0482
     24 H4          1.1065   -0.8615   -0.5446 H         1 <0>         0.1317
     25 H5          5.6561    1.0577   -0.2260 H         1 <0>         0.1570
     26 H6          7.6399   -1.6787   -0.5588 H         1 <0>         0.0821
     27 H7          6.9458   -0.4082    0.5046 H         1 <0>         0.0528
     28 H8          6.9716   -0.1735   -1.2761 H         1 <0>         0.0525
     29 H9          3.9102    3.7473   -3.1032 H         1 <0>         0.1163
@<TRIPOS>BOND
     1    1    2 1
     2    1   21 1
     3    1   22 1
     4    1   23 1
     5    2    3 1
     6    3    8 ar
     7    3    4 ar
     8    4    5 ar
     9    4   24 1
    10    5    6 ar
    11    5   18 1
    12    6    7 ar
    13    6   11 1
    14    7    8 ar
    15    7   25 1
    16    8    9 1
    17    9   10 1
    18   10   26 1
    19   10   27 1
    20   10   28 1
    21   11   12 1
    22   12   13 2
    23   12   14 2
    24   12   15 1
    25   15   16 1
    26   15   17 1
    27   15   29 1
    28   18   19 2
    29   18   20 1
@<TRIPOS>MOLECULE
ZINC37656276
   33    34     0     0     0
SMALL
USER_CHARGES

@<TRIPOS>ATOM
      1 C1          0.4456    1.9724    0.2553 C.ar      1 <0>        -0.2195
      2 C2          1.6867    2.5606    0.4151 C.ar      1 <0>        -0.1191
      3 C3          2.8316    1.7850    0.3786 C.ar      1 <0>         0.0311
      4 C4          2.7331    0.4127    0.1811 C.ar      1 <0>         0.2523
      5 C5          1.4837   -0.1749    0.0209 C.ar      1 <0>        -0.0679
      6 C6          0.3435    0.6075    0.0586 C.ar      1 <0>        -0.1002
      7 F1          1.3830   -1.5082   -0.1718 F         1 <0>        -0.1428
      8 N1          3.8896   -0.3757    0.1431 N.2       1 <0>        -1.0303
      9 S1          3.7698   -2.0105   -0.0924 S.o2      1 <0>         2.7445
     10 O1          3.1155   -2.5390    1.0530 O.2       1 <0>        -1.0094
     11 O2          3.2687   -2.1955   -1.4092 O.2       1 <0>        -1.0780
     12 N2          5.3092   -2.6208   -0.0817 N.pl3     1 <0>        -0.9794
     13 C7          6.0113   -2.9033   -1.3411 C.3       1 <0>         0.1264
     14 C8          7.3634   -2.1833   -1.3240 C.3       1 <0>        -0.1301
     15 C9          8.1375   -2.5900   -0.0680 C.3       1 <0>        -0.1086
     16 C10         7.3512   -2.1704    1.1761 C.3       1 <0>        -0.1135
     17 C11         6.0012   -2.8845    1.1873 C.3       1 <0>         0.0930
     18 H1          6.1594   -3.9569    1.3013 H         1 <0>         0.0450
     19 C12         5.1690   -2.3691    2.3331 C.2       1 <0>         0.4912
     20 O3          4.9643   -3.0768    3.3045 O.co2     1 <0>        -0.7060
     21 O4          4.7004   -1.2444    2.2886 O.co2     1 <0>        -0.6354
     22 F2          4.0438    2.3607    0.5344 F         1 <0>        -0.1445
     23 H2         -0.4467    2.5799    0.2888 H         1 <0>         0.1086
     24 H3          1.7625    3.6270    0.5682 H         1 <0>         0.1111
     25 H4         -0.6277    0.1516   -0.0654 H         1 <0>         0.1087
     26 H5          6.1704   -3.9772   -1.4379 H         1 <0>         0.0449
     27 H6          5.4160   -2.5429   -2.1801 H         1 <0>         0.0789
     28 H7          7.9349   -2.4615   -2.2096 H         1 <0>         0.0544
     29 H8          7.2016   -1.1054   -1.3186 H         1 <0>         0.0685
     30 H9          8.2774   -3.6710   -0.0618 H         1 <0>         0.0503
     31 H10         9.1102   -2.0981   -0.0658 H         1 <0>         0.0488
     32 H11         7.9140   -2.4394    2.0700 H         1 <0>         0.0542
     33 H12         7.1895   -1.0926    1.1579 H         1 <0>         0.0731
@<TRIPOS>BOND
     1    1    6 ar
     2    1    2 ar
     3    1   23 1
     4    2    3 ar
     5    2   24 1
     6    3    4 ar
     7    3   22 1
     8    4    5 ar
     9    4    8 1
    10    5    6 ar
    11    5    7 1
    12    6   25 1
    13    8    9 1
    14    9   10 2
    15    9   11 2
    16    9   12 1
    17   12   17 1
    18   12   13 1
    19   13   14 1
    20   13   26 1
    21   13   27 1
    22   14   15 1
    23   14   28 1
    24   14   29 1
    25   15   16 1
    26   15   30 1
    27   15   31 1
    28   16   17 1
    29   16   32 1
    30   16   33 1
    31   17   18 1
    32   17   19 1
    33   19   20 2
    34   19   21 1
@<TRIPOS>MOLECULE
ZINC44591858
   30    32     0     0     0
SMALL
USER_CHARGES

@<TRIPOS>ATOM
      1 C1         -1.4948    0.6568   -3.4797 C.ar      1 <0>        -0.0447
      2 C2         -0.5808    1.2983   -4.2982 C.ar      1 <0>        -0.2399
      3 C3          0.7698    0.9998   -4.1317 C.ar      1 <0>         0.3681
      4 O1          1.6991    1.6046   -4.9109 O.3       1 <0>        -0.7058
      5 N1          1.1455    0.1231   -3.2091 N.ar      1 <0>        -0.3614
      6 N2          0.3011   -0.4735   -2.4485 N.ar      1 <0>        -0.1715
      7 C4         -1.0053   -0.2522   -2.5351 C.ar      1 <0>        -0.0954
      8 C5         -1.9399   -0.9638   -1.6359 C.2       1 <0>         0.5709
      9 O2         -3.0394   -0.4977   -1.4101 O.2       1 <0>        -0.4788
     10 N3         -1.5721   -2.1290   -1.0671 N.am      1 <0>        -0.5908
     11 C6         -0.2290   -2.6809   -1.2995 C.3       1 <0>         0.0812
     12 C7          0.5262   -2.6920    0.0385 C.3       1 <0>        -0.0444
     13 C8         -0.3982   -3.1799    1.1061 C.2       1 <0>        -0.1336
     14 C9         -1.7548   -3.2745    1.0586 C.2       1 <0>        -0.0971
     15 C10        -2.3888   -3.7579    2.2020 C.2       1 <0>        -0.1152
     16 C11        -1.6569   -4.1107    3.2835 C.2       1 <0>        -0.1998
     17 S1          0.0067   -3.7696    2.7290 S.3       1 <0>        -0.0225
     18 C12        -2.5053   -2.8625   -0.2014 C.3       1 <0>         0.1287
     19 H1         -2.8678   -3.7510   -0.7184 H         1 <0>         0.0682
     20 C13        -3.6666   -1.9747    0.1651 C.2       1 <0>         0.5254
     21 O3         -4.8083   -2.3879    0.0551 O.co2     1 <0>        -0.7116
     22 O4         -3.4643   -0.8432    0.5716 O.co2     1 <0>        -0.6559
     23 H2         -2.5530    0.8554   -3.5646 H         1 <0>         0.1269
     24 H3         -0.9052    2.0088   -5.0441 H         1 <0>         0.1201
     25 H4         -0.3111   -3.6977   -1.6836 H         1 <0>         0.0484
     26 H5          0.3048   -2.0584   -2.0175 H         1 <0>         0.1559
     27 H6          1.3864   -3.3577   -0.0326 H         1 <0>         0.0783
     28 H7          0.8609   -1.6827    0.2779 H         1 <0>         0.0871
     29 H8         -3.4646   -3.8505    2.2246 H         1 <0>         0.1314
     30 H9         -1.9912   -4.4974    4.2349 H         1 <0>         0.1776
@<TRIPOS>BOND
     1    1    7 ar
     2    1    2 ar
     3    1   23 1
     4    2    3 ar
     5    2   24 1
     6    3    4 1
     7    3    5 ar
     8    5    6 ar
     9    6    7 ar
    10    7    8 1
    11    8    9 2
    12    8   10 am
    13   10   18 1
    14   10   11 1
    15   11   12 1
    16   11   25 1
    17   11   26 1
    18   12   13 1
    19   12   27 1
    20   12   28 1
    21   13   17 1
    22   13   14 2
    23   14   15 1
    24   14   18 1
    25   15   16 2
    26   15   29 1
    27   16   17 1
    28   16   30 1
    29   18   19 1
    30   18   20 1
    31   20   21 2
    32   20   22 1
@<TRIPOS>MOLECULE
ZINC16900832
   32    33     0     0     0
SMALL
USER_CHARGES

@<TRIPOS>ATOM
      1 C1         -0.0187    1.5258    0.0104 C.3       1 <0>        -0.1182
      2 C2          0.0021   -0.0041    0.0020 C.3       1 <0>        -0.1299
      3 H1          0.5293   -0.3651    0.8851 H         1 <0>         0.0961
      4 C3         -1.4117   -0.5257    0.0127 C.2       1 <0>         0.5171
      5 O1         -2.3051    0.1240   -0.5032 O.co2     1 <0>        -0.6797
      6 O2         -1.6621   -1.5974    0.5373 O.co2     1 <0>        -0.6764
      7 S1          0.8511   -0.5891   -1.4904 S.3       1 <0>        -0.1640
      8 C4          2.5579   -0.0120   -1.2791 C.3       1 <0>        -0.1139
      9 H2          2.5786    1.0627   -1.0986 H         1 <0>         0.1401
     10 C5          3.4093   -0.3715   -2.5138 C.3       1 <0>        -0.1216
     11 C6          4.4794   -1.2829   -1.9535 C.2       1 <0>         0.5199
     12 O3          5.3688   -1.7990   -2.5954 O.2       1 <0>        -0.4178
     13 N1          4.2885   -1.4286   -0.6365 N.am      1 <0>        -0.4727
     14 C7          3.2351   -0.7551   -0.1483 C.2       1 <0>         0.5326
     15 O4          2.8810   -0.7434    1.0111 O.2       1 <0>        -0.4473
     16 C8          5.1169   -2.2137    0.1634 C.2       1 <0>         0.2225
     17 N2          6.1747   -2.9096   -0.1914 N.2       1 <0>        -0.4631
     18 C9          6.8601   -3.6088    0.6931 C.2       1 <0>         0.1364
     19 C10         6.4238   -3.5753    1.9769 C.2       1 <0>        -0.2740
     20 S2          5.0106   -2.4955    1.8193 S.3       1 <0>         0.1481
     21 C11         8.0731   -4.4093    0.2946 C.3       1 <0>        -0.1217
     22 C12         7.7058   -5.3583   -0.8169 C.2       1 <0>         0.4992
     23 O5          6.5647   -5.3825   -1.2457 O.co2     1 <0>        -0.6701
     24 O6          8.5497   -6.1020   -1.2873 O.co2     1 <0>        -0.7129
     25 H3          1.0039    1.9031    0.0027 H         1 <0>         0.0350
     26 H4         -0.5459    1.8868   -0.8726 H         1 <0>         0.0701
     27 H5         -0.5289    1.8773    0.9072 H         1 <0>         0.0565
     28 H6          2.8073   -0.8972   -3.2550 H         1 <0>         0.1333
     29 H7          3.8558    0.5240   -2.9459 H         1 <0>         0.1326
     30 H8          6.8236   -4.0635    2.8534 H         1 <0>         0.1925
     31 H9          8.8573   -3.7343   -0.0483 H         1 <0>         0.0756
     32 H10         8.4321   -4.9768    1.1532 H         1 <0>         0.0757
@<TRIPOS>BOND
     1    1    2 1
     2    1   25 1
     3    1   26 1
     4    1   27 1
     5    2    3 1
     6    2    4 1
     7    2    7 1
     8    4    5 2
     9    4    6 1
    10    7    8 1
    11    8    9 1
    12    8   14 1
    13    8   10 1
    14   10   11 1
    15   10   28 1
    16   10   29 1
    17   11   12 2
    18   11   13 am
    19   13   14 am
    20   13   16 1
    21   14   15 2
    22   16   20 1
    23   16   17 2
    24   17   18 1
    25   18   19 2
    26   18   21 1
    27   19   20 1
    28   19   30 1
    29   21   22 1
    30   21   31 1
    31   21   32 1
    32   22   23 2
    33   22   24 1
@<TRIPOS>MOLECULE
ZINC12850469
   37    40     0     0     0
SMALL
USER_CHARGES
(2R,4R)-4-hydroxy-1-BLAHyl-pyrrolidine-2-carboxamide
@<TRIPOS>ATOM
      1 C1         -3.9048    2.8828    0.0502 C.ar      1 <0>         0.3442
      2 N1         -2.9109    3.7533    0.0482 N.ar      1 <0>        -0.5725
      3 C2         -1.6425    3.3747    0.0361 C.ar      1 <0>         0.4090
      4 C3         -1.3383    1.9857    0.0201 C.ar      1 <0>        -0.1832
      5 C4         -0.0161    1.3384    0.0094 C.2       1 <0>        -0.1016
      6 C5          0.0021   -0.0041    0.0020 C.2       1 <0>        -0.1698
      7 S1         -1.7085   -0.4906    0.0123 S.3       1 <0>         0.1538
      8 C6         -2.4469    1.1202    0.0283 C.ar      1 <0>         0.1284
      9 N2         -3.6827    1.5827    0.0409 N.ar      1 <0>        -0.4951
     10 C7          1.4034   -0.5537   -0.0106 C.3       1 <0>        -0.0365
     11 C8          2.2887    0.6331    0.4288 C.3       1 <0>        -0.1178
     12 C9          1.4311    1.8392   -0.0017 C.3       1 <0>        -0.0672
     13 N3         -0.6287    4.3157    0.0351 N.pl3     1 <0>        -0.4328
     14 C10         0.2197    4.1771   -1.1628 C.3       1 <0>         0.0112
     15 C11         0.2090    5.5379   -1.8905 C.3       1 <0>         0.0883
     16 H1         -0.5335    5.5424   -2.6884 H         1 <0>         0.0763
     17 C12        -0.1825    6.5324   -0.7660 C.3       1 <0>        -0.1142
     18 C13        -1.1791    5.6875    0.0660 C.3       1 <0>         0.0502
     19 H2         -2.1687    5.7097   -0.3903 H         1 <0>         0.1243
     20 C14        -1.2421    6.1957    1.4834 C.2       1 <0>         0.5332
     21 O1         -0.8667    5.4921    2.3971 O.2       1 <0>        -0.5198
     22 N4         -1.7157    7.4321    1.7355 N.am      1 <0>        -0.8535
     23 O2          1.5055    5.8445   -2.4074 O.3       1 <0>        -0.5495
     24 H3         -4.9225    3.2441    0.0602 H         1 <0>         0.2101
     25 H4          1.4949   -1.3786    0.6959 H         1 <0>         0.0847
     26 H5          1.6752   -0.8797   -1.0146 H         1 <0>         0.0907
     27 H6          2.4410    0.6278    1.5081 H         1 <0>         0.0797
     28 H7          3.2427    0.6247   -0.0984 H         1 <0>         0.0875
     29 H8          1.7106    2.1620   -1.0046 H         1 <0>         0.0812
     30 H9          1.5517    2.6592    0.7062 H         1 <0>         0.0861
     31 H10         1.2377    3.9218   -0.8686 H         1 <0>         0.1143
     32 H11        -0.1847    3.4040   -1.8162 H         1 <0>         0.0738
     33 H12         0.6869    6.8098   -0.1699 H         1 <0>         0.0968
     34 H13        -0.6686    7.4165   -1.1786 H         1 <0>         0.0987
     35 H14        -2.0160    7.9948    1.0047 H         1 <0>         0.4012
     36 H15        -1.7563    7.7592    2.6478 H         1 <0>         0.4054
     37 H16         1.8295    5.2082   -3.0595 H         1 <0>         0.3849
@<TRIPOS>BOND
     1    1    9 ar
     2    1    2 ar
     3    1   24 1
     4    2    3 ar
     5    3    4 ar
     6    3   13 1
     7    4    8 ar
     8    4    5 1
     9    5   12 1
    10    5    6 2
    11    6    7 1
    12    6   10 1
    13    7    8 1
    14    8    9 ar
    15   10   11 1
    16   10   25 1
    17   10   26 1
    18   11   12 1
    19   11   27 1
    20   11   28 1
    21   12   29 1
    22   12   30 1
    23   13   18 1
    24   13   14 1
    25   14   15 1
    26   14   31 1
    27   14   32 1
    28   15   16 1
    29   15   17 1
    30   15   23 1
    31   17   18 1
    32   17   33 1
    33   17   34 1
    34   18   19 1
    35   18   20 1
    36   20   21 2
    37   20   22 am
    38   22   35 1
    39   22   36 1
    40   23   37 1
@<TRIPOS>MOLECULE
ZINC43410666
   40    42     0     0     0
SMALL
USER_CHARGES

@<TRIPOS>ATOM
      1 C1          3.4335    2.5225   -2.6279 C.3       1 <0>        -0.1421
      2 C2          2.1856    2.1782   -1.8123 C.3       1 <0>        -0.0399
      3 C3          1.7532    0.7692   -2.1266 C.2       1 <0>         0.2331
      4 N1          0.9263    0.4193   -3.0732 N.2       1 <0>        -0.4780
      5 C4          0.7736   -0.9136   -3.0609 C.2       1 <0>        -0.0350
      6 C5          1.5335   -1.4153   -2.0696 C.2       1 <0>         0.0142
      7 N2          2.1637   -0.3513   -1.4749 N.pl3     1 <0>        -0.4037
      8 C6          3.0550   -0.4083   -0.4029 C.ar      1 <0>         0.3780
      9 C7          4.3192   -0.9887   -0.5759 C.ar      1 <0>        -0.0877
     10 C8          5.1864   -1.0328    0.5159 C.ar      1 <0>        -0.0428
     11 C9          4.7662   -0.4993    1.7291 C.ar      1 <0>        -0.1156
     12 C10         3.5111    0.0604    1.8236 C.ar      1 <0>         0.1735
     13 N3          2.7070    0.0889    0.7673 N.ar      1 <0>        -0.4799
     14 C11         2.9969    0.6728    3.1020 C.3       1 <0>        -0.0733
     15 C12         3.8188    0.1933    4.2962 C.3       1 <0>        -0.1214
     16 C13         5.3032    0.4172    3.9847 C.3       1 <0>        -0.1240
     17 C14         5.7190   -0.5667    2.8927 C.3       1 <0>        -0.0789
     18 C15         4.7243   -1.5423   -1.8862 C.2       1 <0>         0.3976
     19 N4          3.8663   -1.5961   -2.8632 N.2       1 <0>        -0.3801
     20 O1          4.2155   -2.2346   -4.0778 O.3       1 <0>        -0.4173
     21 N5          6.0165   -2.0034   -2.0735 N.pl3     1 <0>        -0.8669
     22 H1          4.2364    1.8307   -2.3731 H         1 <0>         0.0456
     23 H2          3.2069    2.4405   -3.6909 H         1 <0>         0.0636
     24 H3          3.7463    3.5416   -2.4006 H         1 <0>         0.0643
     25 H4          2.4122    2.2601   -0.7493 H         1 <0>         0.0763
     26 H5          1.3828    2.8700   -2.0671 H         1 <0>         0.0964
     27 H6          0.1483   -1.4854   -3.7306 H         1 <0>         0.1692
     28 H7          1.6313   -2.4558   -1.7971 H         1 <0>         0.1636
     29 H8          6.1675   -1.4741    0.4205 H         1 <0>         0.1476
     30 H9          3.0637    1.7586    3.0326 H         1 <0>         0.0929
     31 H10         1.9551    0.3859    3.2444 H         1 <0>         0.0920
     32 H11         3.5410    0.7614    5.1840 H         1 <0>         0.0802
     33 H12         3.6358   -0.8680    4.4645 H         1 <0>         0.0702
     34 H13         5.4553    1.4387    3.6360 H         1 <0>         0.0704
     35 H14         5.8972    0.2427    4.8819 H         1 <0>         0.0771
     36 H15         5.7176   -1.5777    3.3003 H         1 <0>         0.0862
     37 H16         6.7235   -0.3195    2.5496 H         1 <0>         0.0834
     38 H17         3.5142   -2.2241   -4.7435 H         1 <0>         0.4040
     39 H18         6.6561   -1.9634   -1.3453 H         1 <0>         0.3945
     40 H19         6.2822   -2.3665   -2.9329 H         1 <0>         0.4127
@<TRIPOS>BOND
     1    1    2 1
     2    1   22 1
     3    1   23 1
     4    1   24 1
     5    2    3 1
     6    2   25 1
     7    2   26 1
     8    3    7 1
     9    3    4 2
    10    4    5 1
    11    5    6 2
    12    5   27 1
    13    6    7 1
    14    6   28 1
    15    7    8 1
    16    8   13 ar
    17    8    9 ar
    18    9   10 ar
    19    9   18 1
    20   10   11 ar
    21   10   29 1
    22   11   17 1
    23   11   12 ar
    24   12   13 ar
    25   12   14 1
    26   14   15 1
    27   14   30 1
    28   14   31 1
    29   15   16 1
    30   15   32 1
    31   15   33 1
    32   16   17 1
    33   16   34 1
    34   16   35 1
    35   17   36 1
    36   17   37 1
    37   18   19 2
    38   18   21 1
    39   19   20 1
    40   20   38 1
    41   21   39 1
    42   21   40 1
@<TRIPOS>MOLECULE
ZINC49964846
   29    30     0     0     0
SMALL
USER_CHARGES

@<TRIPOS>ATOM
      1 C1         -0.0178    1.4608    0.0101 C.3       1 <0>         0.0595
      2 N1          0.0021   -0.0041    0.0020 N.pl3     1 <0>        -0.9403
      3 C2          0.0231   -0.7096    1.2090 C.ar      1 <0>         0.1624
      4 C3          0.5544   -1.9919    1.2558 C.ar      1 <0>        -0.1262
      5 C4          0.5746   -2.6868    2.4492 C.ar      1 <0>        -0.1154
      6 C5          0.0656   -2.1059    3.5985 C.ar      1 <0>         0.0761
      7 C6         -0.4645   -0.8276    3.5542 C.ar      1 <0>        -0.1220
      8 C7         -0.4820   -0.1269    2.3640 C.ar      1 <0>        -0.1199
      9 F1          0.0860   -2.7876    4.7647 F         1 <0>        -0.1383
     10 S1         -0.0004   -0.8243   -1.4366 S.o2      1 <0>         2.7174
     11 O1         -0.5312   -2.1147   -1.1675 O.2       1 <0>        -0.9453
     12 O2         -0.5723    0.0488   -2.4009 O.2       1 <0>        -0.9446
     13 C8          1.6818   -1.0594   -1.9051 C.2       1 <0>        -0.8541
     14 C9          2.3195   -2.2471   -2.0140 C.2       1 <0>         0.2072
     15 N2          3.5908   -2.0011   -2.3945 N.pl3     1 <0>        -0.4463
     16 H1          4.2781   -2.6676   -2.5502 H         1 <0>         0.4491
     17 N3          3.7442   -0.6149   -2.5254 N.2       1 <0>        -0.3433
     18 C10         2.5967   -0.0472   -2.2376 C.2       1 <0>         0.4189
     19 N4          2.3317    1.3272   -2.2558 N.pl3     1 <0>        -0.8398
     20 H2          1.0048    1.8381    0.0023 H         1 <0>         0.0695
     21 H3         -0.5450    1.8219   -0.8730 H         1 <0>         0.0959
     22 H4         -0.5280    1.8123    0.9069 H         1 <0>         0.0934
     23 H5          0.9511   -2.4455    0.3595 H         1 <0>         0.1360
     24 H6          0.9873   -3.6842    2.4860 H         1 <0>         0.1432
     25 H7         -0.8613   -0.3765    4.4517 H         1 <0>         0.1421
     26 H8         -0.8915    0.8719    2.3308 H         1 <0>         0.1415
     27 H9          1.8881   -3.2198   -1.8292 H         1 <0>         0.1997
     28 H10         1.4483    1.6539   -2.0243 H         1 <0>         0.4098
     29 H11         3.0316    1.9529   -2.5000 H         1 <0>         0.4138
@<TRIPOS>BOND
     1    1    2 1
     2    1   20 1
     3    1   21 1
     4    1   22 1
     5    2    3 1
     6    2   10 1
     7    3    8 ar
     8    3    4 ar
     9    4    5 ar
    10    4   23 1
    11    5    6 ar
    12    5   24 1
    13    6    7 ar
    14    6    9 1
    15    7    8 ar
    16    7   25 1
    17    8   26 1
    18   10   11 2
    19   10   12 2
    20   10   13 1
    21   13   18 1
    22   13   14 2
    23   14   15 1
    24   14   27 1
    25   15   16 1
    26   15   17 1
    27   17   18 2
    28   18   19 1
    29   19   28 1
    30   19   29 1
@<TRIPOS>MOLECULE
ZINC51991685
   39    41     0     0     0
SMALL
USER_CHARGES

@<TRIPOS>ATOM
      1 C1         -0.0169    1.3926    0.0097 C.ar      1 <0>        -0.0736
      2 C2          1.1664    2.1005    0.0022 C.ar      1 <0>        -0.1125
      3 C3          2.3785    1.4276   -0.0129 C.ar      1 <0>         0.1046
      4 C4          2.4045    0.0306   -0.0208 C.ar      1 <0>         0.0867
      5 C5          1.2235   -0.6842   -0.0129 C.ar      1 <0>        -0.0619
      6 C6          0.0021   -0.0041    0.0020 C.ar      1 <0>        -0.1254
      7 C7         -1.2654   -0.7607    0.0108 C.2       1 <0>         0.5633
      8 O1         -1.2477   -1.9764    0.0041 O.2       1 <0>        -0.5345
      9 N1         -2.4422   -0.1039    0.0262 N.am      1 <0>        -0.7081
     10 C8         -3.7001   -0.8548    0.0349 C.3       1 <0>         0.1561
     11 H1         -3.5746   -1.7670    0.6182 H         1 <0>         0.0968
     12 C9         -4.0881   -1.2164   -1.4002 C.3       1 <0>        -0.1310
     13 C10        -4.2641    0.0640   -2.2190 C.3       1 <0>        -0.1221
     14 C11        -5.3659    0.9218   -1.5936 C.3       1 <0>        -0.1199
     15 C12        -4.9778    1.2835   -0.1584 C.3       1 <0>        -0.1537
     16 C13        -4.8018    0.0031    0.6603 C.3       1 <0>         0.0961
     17 H2         -5.7377   -0.5556    0.6668 H         1 <0>         0.0720
     18 O2         -4.4394    0.3408    2.0007 O.3       1 <0>        -0.5619
     19 N2          3.6409   -0.6315   -0.0374 N.am      1 <0>        -0.6596
     20 C14         4.7584    0.0617    0.2715 C.2       1 <0>         0.4907
     21 O3          5.8419   -0.4823    0.2356 O.2       1 <0>        -0.5041
     22 C15         4.6533    1.5141    0.6614 C.3       1 <0>         0.0497
     23 O4          3.5496    2.1161   -0.0196 O.3       1 <0>        -0.2978
     24 H3         -0.9598    1.9189    0.0260 H         1 <0>         0.1367
     25 H4          1.1489    3.1804    0.0077 H         1 <0>         0.1489
     26 H5          1.2430   -1.7640   -0.0193 H         1 <0>         0.1484
     27 H6         -2.4562    0.8660    0.0316 H         1 <0>         0.3997
     28 H7         -3.3032   -1.8276   -1.8457 H         1 <0>         0.0772
     29 H8         -5.0240   -1.7751   -1.3937 H         1 <0>         0.0767
     30 H9         -3.3282    0.6227   -2.2255 H         1 <0>         0.0638
     31 H10        -4.5405   -0.1937   -3.2414 H         1 <0>         0.0679
     32 H11        -5.4913    1.8340   -2.1769 H         1 <0>         0.0685
     33 H12        -6.3018    0.3631   -1.5871 H         1 <0>         0.0668
     34 H13        -4.0419    1.8422   -0.1649 H         1 <0>         0.0677
     35 H14        -5.7627    1.8946    0.2871 H         1 <0>         0.0714
     36 H15        -5.0936    0.8853    2.4597 H         1 <0>         0.3809
     37 H16         3.6927   -1.5726   -0.2667 H         1 <0>         0.4197
     38 H17         4.5008    1.5906    1.7380 H         1 <0>         0.1049
     39 H18         5.5735    2.0306    0.3883 H         1 <0>         0.1507
@<TRIPOS>BOND
     1    1    6 ar
     2    1    2 ar
     3    1   24 1
     4    2    3 ar
     5    2   25 1
     6    3   23 1
     7    3    4 ar
     8    4    5 ar
     9    4   19 1
    10    5    6 ar
    11    5   26 1
    12    6    7 1
    13    7    8 2
    14    7    9 am
    15    9   10 1
    16    9   27 1
    17   10   11 1
    18   10   16 1
    19   10   12 1
    20   12   13 1
    21   12   28 1
    22   12   29 1
    23   13   14 1
    24   13   30 1
    25   13   31 1
    26   14   15 1
    27   14   32 1
    28   14   33 1
    29   15   16 1
    30   15   34 1
    31   15   35 1
    32   16   17 1
    33   16   18 1
    34   18   36 1
    35   19   20 am
    36   19   37 1
    37   20   21 2
    38   20   22 1
    39   22   23 1
    40   22   38 1
    41   22   39 1
@<TRIPOS>MOLECULE
ZINC61909729
   33    35     0     0     0
SMALL
USER_CHARGES

@<TRIPOS>ATOM
      1 C1         -0.0184    1.5028    0.0103 C.3       1 <0>        -0.1247
      2 C2          0.0021   -0.0041    0.0020 C.2       1 <0>         0.0136
      3 C3          0.0060   -0.7062   -1.2115 C.2       1 <0>        -0.2311
      4 C4          0.0249   -2.0595   -1.2090 C.2       1 <0>         0.1404
      5 N1          0.0401   -2.7504   -0.0404 N.am      1 <0>        -0.4959
      6 C5          0.0364   -2.1048    1.1413 C.2       1 <0>         0.5139
      7 O1          0.0499   -2.7399    2.1835 O.2       1 <0>        -0.5283
      8 C6          0.0227   -0.6999    1.1750 C.2       1 <0>        -0.2490
      9 C7          0.0604   -4.2151   -0.0654 C.3       1 <0>         0.1675
     10 C8          1.4880   -4.6975   -0.0807 C.ar      1 <0>         0.3608
     11 N2          2.0960   -4.8797   -1.2395 N.ar      1 <0>        -0.5626
     12 C9          3.3475   -5.3012   -1.3199 C.ar      1 <0>         0.4943
     13 C10         4.0674   -5.5688   -0.1227 C.ar      1 <0>        -0.2485
     14 C11         5.4318   -6.0333    0.0567 C.2       1 <0>        -0.1197
     15 C12         5.9029   -6.2172    1.2988 C.2       1 <0>        -0.1655
     16 S1          4.5238   -5.7722    2.3375 S.3       1 <0>         0.1191
     17 C13         3.3520   -5.3511    1.0750 C.ar      1 <0>         0.1483
     18 N3          2.1048   -4.9234    1.0628 N.ar      1 <0>        -0.4878
     19 N4          3.9482   -5.4799   -2.5529 N.pl3     1 <0>        -0.5482
     20 N5          3.2489   -5.2209   -3.6974 N.3       1 <0>        -0.5948
     21 H1          1.0042    1.8801    0.0026 H         1 <0>         0.0801
     22 H2         -0.5455    1.8639   -0.8728 H         1 <0>         0.0746
     23 H3         -0.5286    1.8543    0.9071 H         1 <0>         0.0743
     24 H4         -0.0064   -0.1676   -2.1475 H         1 <0>         0.1450
     25 H5          0.0275   -2.5955   -2.1466 H         1 <0>         0.1651
     26 H6          0.0241   -0.1767    2.1198 H         1 <0>         0.1474
     27 H7         -0.4438   -4.6006    0.8208 H         1 <0>         0.1299
     28 H8         -0.4528   -4.5704   -0.9589 H         1 <0>         0.1228
     29 H9          6.0595   -6.2285   -0.8002 H         1 <0>         0.1359
     30 H10         6.8841   -6.5547    1.5986 H         1 <0>         0.1978
     31 H11         4.8661   -5.7893   -2.6049 H         1 <0>         0.4160
     32 H12         2.8946   -4.2761   -3.6986 H         1 <0>         0.3484
     33 H13         3.8146   -5.3960   -4.5143 H         1 <0>         0.3607
@<TRIPOS>BOND
     1    1    2 1
     2    1   21 1
     3    1   22 1
     4    1   23 1
     5    2    8 2
     6    2    3 1
     7    3    4 2
     8    3   24 1
     9    4    5 1
    10    4   25 1
    11    5    6 am
    12    5    9 1
    13    6    7 2
    14    6    8 1
    15    8   26 1
    16    9   10 1
    17    9   27 1
    18    9   28 1
    19   10   18 ar
    20   10   11 ar
    21   11   12 ar
    22   12   13 ar
    23   12   19 1
    24   13   17 ar
    25   13   14 1
    26   14   15 2
    27   14   29 1
    28   15   16 1
    29   15   30 1
    30   16   17 1
    31   17   18 ar
    32   19   20 1
    33   19   31 1
    34   20   32 1
    35   20   33 1
@<TRIPOS>MOLECULE
ZINC13266959
   40    42     0     0     0
SMALL
USER_CHARGES
5-[[2-[[4-(2-fluorophenyl)-1,2,4-triazol-3-yl]sulfanyl]acetyl]amino]benzene-1,3-dicarboxylic acid
@<TRIPOS>ATOM
      1 C1          2.0769   -3.6330   -2.1273 C.ar      1 <0>        -0.1197
      2 C2          2.8504   -4.2455   -1.1583 C.ar      1 <0>        -0.0720
      3 C3          3.1301   -3.5877    0.0250 C.ar      1 <0>        -0.1412
      4 C4          2.6355   -2.3143    0.2431 C.ar      1 <0>         0.1255
      5 C5          1.8575   -1.6974   -0.7295 C.ar      1 <0>         0.0680
      6 C6          1.5751   -2.3638   -1.9135 C.ar      1 <0>        -0.0723
      7 N1          1.3538   -0.4056   -0.5123 N.pl3     1 <0>        -0.4235
      8 C7          0.0397   -0.0391   -0.3921 C.2       1 <0>         0.1619
      9 N2          0.0129    1.2495   -0.1997 N.2       1 <0>        -0.2802
     10 N3          1.2086    1.7204   -0.1897 N.2       1 <0>        -0.2933
     11 C8          2.0730    0.7499   -0.3769 C.2       1 <0>         0.1609
     12 S1          3.8268    0.9066   -0.4424 S.3       1 <0>         0.0988
     13 C9          3.9927    2.6906   -0.1856 C.3       1 <0>        -0.1442
     14 C10         5.4518    3.0671   -0.2035 C.2       1 <0>         0.5198
     15 O1          6.2964    2.2133   -0.3731 O.2       1 <0>        -0.4999
     16 N4          5.8182    4.3526   -0.0309 N.am      1 <0>        -0.6513
     17 C11         7.1743    4.6873    0.0630 C.ar      1 <0>         0.0841
     18 C12         8.0645    3.8069    0.6599 C.ar      1 <0>        -0.0765
     19 C13         9.4188    4.1350    0.7503 C.ar      1 <0>        -0.1258
     20 C14         9.8738    5.3534    0.2496 C.ar      1 <0>        -0.0335
     21 C15         8.9755    6.2381   -0.3445 C.ar      1 <0>        -0.1255
     22 C16         7.6235    5.9010   -0.4360 C.ar      1 <0>        -0.1008
     23 C17         9.4532    7.5308   -0.8772 C.2       1 <0>         0.4985
     24 O2          8.6698    8.3011   -1.3952 O.co2     1 <0>        -0.6469
     25 C18        10.3673    3.1941    1.3814 C.2       1 <0>         0.4975
     26 O3          9.9699    2.1323    1.8176 O.co2     1 <0>        -0.6414
     27 F1          2.9079   -1.6716    1.3998 F         1 <0>        -0.1170
     28 H1          1.8607   -4.1498   -3.0507 H         1 <0>         0.1420
     29 H2          3.2371   -5.2397   -1.3266 H         1 <0>         0.1432
     30 H3          3.7348   -4.0684    0.7798 H         1 <0>         0.1505
     31 H4          0.9669   -1.8889   -2.6691 H         1 <0>         0.1415
     32 H5         -0.8157   -0.6961   -0.4473 H         1 <0>         0.2230
     33 H6          3.4705    3.2223   -0.9810 H         1 <0>         0.1271
     34 H7          3.5595    2.9609    0.7774 H         1 <0>         0.1282
     35 H8          5.1423    5.0458    0.0282 H         1 <0>         0.4063
     36 H9          7.7104    2.8648    1.0517 H         1 <0>         0.1325
     37 H10        10.9200    5.6117    0.3220 H         1 <0>         0.1412
     38 H11         6.9268    6.5860   -0.8962 H         1 <0>         0.1229
     39 O4         10.7577    7.8551   -0.7885 O.co2     1 <0>        -0.7527
     40 O5         11.6727    3.5138    1.4731 O.co2     1 <0>        -0.7557
@<TRIPOS>BOND
     1    1    6 ar
     2    1    2 ar
     3    1   28 1
     4    2    3 ar
     5    2   29 1
     6    3    4 ar
     7    3   30 1
     8    4    5 ar
     9    4   27 1
    10    5    6 ar
    11    5    7 1
    12    6   31 1
    13    7   11 1
    14    7    8 1
    15    8    9 2
    16    8   32 1
    17    9   10 1
    18   10   11 2
    19   11   12 1
    20   12   13 1
    21   13   14 1
    22   13   33 1
    23   13   34 1
    24   14   15 2
    25   14   16 am
    26   16   17 1
    27   16   35 1
    28   17   22 ar
    29   17   18 ar
    30   18   19 ar
    31   18   36 1
    32   19   20 ar
    33   19   25 1
    34   20   21 ar
    35   20   37 1
    36   21   22 ar
    37   21   23 1
    38   22   38 1
    39   23   24 2
    40   23   39 1
    41   25   26 2
    42   25   40 1
@<TRIPOS>MOLECULE
ZINC16925083
   41    43     0     0     0
SMALL
USER_CHARGES
2-[[2-[(5S)-3-(4-fluorophenyl)-2,4-dioxo-thiazolidin-5-yl]acetyl]amino]terephthalic acid
@<TRIPOS>ATOM
      1 C1         -6.8876    1.4992    0.0223 C.ar      1 <0>        -0.0631
      2 C2         -8.1543    2.0498    0.0132 C.ar      1 <0>        -0.1428
      3 C3         -8.4900    3.0007   -0.9357 C.ar      1 <0>         0.1092
      4 C4         -7.5555    3.4046   -1.8744 C.ar      1 <0>        -0.1416
      5 C5         -6.2862    2.8601   -1.8650 C.ar      1 <0>        -0.0659
      6 C6         -5.9478    1.9070   -0.9143 C.ar      1 <0>         0.0916
      7 N1         -4.6593    1.3525   -0.9035 N.am      1 <0>        -0.5401
      8 C7         -3.8808    1.5936    0.1394 C.2       1 <0>         0.5308
      9 O1         -4.2428    2.2723    1.0765 O.2       1 <0>        -0.4481
     10 C8         -2.4985    0.9594    0.0802 C.3       1 <0>        -0.0626
     11 H1         -2.3534    0.2482    0.8934 H         1 <0>         0.1743
     12 S1         -2.6119    0.1051   -1.5424 S.3       1 <0>        -0.0793
     13 C9         -4.2782    0.6017   -1.9536 C.2       1 <0>         0.5405
     14 O2         -4.9184    0.3261   -2.9498 O.2       1 <0>        -0.4215
     15 C10        -1.3983    2.0226    0.0736 C.3       1 <0>        -0.1191
     16 C11        -0.0501    1.3502    0.0384 C.2       1 <0>         0.4986
     17 O3          0.0235    0.1398    0.0204 O.2       1 <0>        -0.5195
     18 N2          1.0737    2.0940    0.0214 N.am      1 <0>        -0.6346
     19 C12         2.3194    1.4757    0.1005 C.ar      1 <0>         0.1500
     20 C13         2.4417    0.2316    0.7027 C.ar      1 <0>        -0.1103
     21 C14         3.6891   -0.3835    0.7794 C.ar      1 <0>        -0.1021
     22 C15         4.8170    0.2502    0.2504 C.ar      1 <0>        -0.1115
     23 C16         4.7008    1.4840   -0.3482 C.ar      1 <0>        -0.0788
     24 C17         3.4527    2.1063   -0.4335 C.ar      1 <0>        -0.1543
     25 C18         3.3279    3.4272   -1.0801 C.2       1 <0>         0.5061
     26 O4          2.2618    4.0095   -1.0713 O.co2     1 <0>        -0.6457
     27 C19         3.8202   -1.7101    1.4214 C.2       1 <0>         0.4967
     28 O5          2.8407   -2.2617    1.8809 O.co2     1 <0>        -0.6343
     29 F1         -9.7309    3.5348   -0.9461 F         1 <0>        -0.1362
     30 H2         -6.6274    0.7545    0.7600 H         1 <0>         0.1390
     31 H3         -8.8844    1.7359    0.7445 H         1 <0>         0.1448
     32 H4         -7.8191    4.1462   -2.6140 H         1 <0>         0.1455
     33 H5         -5.5576    3.1753   -2.5973 H         1 <0>         0.1404
     34 H6         -1.4769    2.6323    0.9736 H         1 <0>         0.1263
     35 H7         -1.5111    2.6567   -0.8058 H         1 <0>         0.1122
     36 H8          1.0150    3.0599   -0.0460 H         1 <0>         0.4245
     37 H9          1.5707   -0.2593    1.1111 H         1 <0>         0.1467
     38 H10         5.7825   -0.2299    0.3114 H         1 <0>         0.1251
     39 H11         5.5748    1.9701   -0.7560 H         1 <0>         0.1273
     40 O6          4.3964    3.9871   -1.6802 O.co2     1 <0>        -0.7528
     41 O7          5.0258   -2.3059    1.4961 O.co2     1 <0>        -0.7652
@<TRIPOS>BOND
     1    1    6 ar
     2    1    2 ar
     3    1   30 1
     4    2    3 ar
     5    2   31 1
     6    3    4 ar
     7    3   29 1
     8    4    5 ar
     9    4   32 1
    10    5    6 ar
    11    5   33 1
    12    6    7 1
    13    7   13 am
    14    7    8 am
    15    8    9 2
    16    8   10 1
    17   10   11 1
    18   10   12 1
    19   10   15 1
    20   12   13 1
    21   13   14 2
    22   15   16 1
    23   15   34 1
    24   15   35 1
    25   16   17 2
    26   16   18 am
    27   18   19 1
    28   18   36 1
    29   19   24 ar
    30   19   20 ar
    31   20   21 ar
    32   20   37 1
    33   21   22 ar
    34   21   27 1
    35   22   23 ar
    36   22   38 1
    37   23   24 ar
    38   23   39 1
    39   24   25 1
    40   25   26 2
    41   25   40 1
    42   27   28 2
    43   27   41 1
@<TRIPOS>MOLECULE
ZINC21191326
   42    44     0     0     0
SMALL
USER_CHARGES
methyl 2-[(Z)-1-chloro-2-(4-hydroxy-3-methoxy-5-nitro-phenyl)vinyl]-4-oxo-3H-quinazoline-7-carboxylate
@<TRIPOS>ATOM
      1 C1          0.5682   -2.3238    1.3020 C.3       1 <0>         0.0258
      2 O1          1.6023   -1.7556    0.4959 O.3       1 <0>        -0.3009
      3 C2          1.3779   -0.5138   -0.0111 C.ar      1 <0>        -0.0022
      4 C3          0.1917    0.1394    0.2617 C.ar      1 <0>        -0.1136
      5 C4         -0.0359    1.4167   -0.2620 C.ar      1 <0>        -0.1730
      6 C5          0.9395    2.0254   -1.0593 C.ar      1 <0>        -0.0011
      7 C6          2.1201    1.3667   -1.3260 C.ar      1 <0>        -0.1904
      8 C7          2.3448    0.0993   -0.8063 C.ar      1 <0>         0.3169
      9 O2          3.5107   -0.5454   -1.0731 O.3       1 <0>        -0.6250
     10 N1          3.1511    2.0120   -2.1696 N.pl3     1 <0>         0.0739
     11 O3          2.9556    3.1241   -2.6264 O.2       1 <0>        -0.2576
     12 O4          4.1949    1.4310   -2.4070 O.3       1 <0>        -0.1761
     13 C8         -1.2993    2.1150    0.0197 C.2       1 <0>        -0.0152
     14 C9         -1.3170    3.4600    0.1290 C.2       1 <0>        -0.0467
     15 C10        -2.5934    4.1681    0.2492 C.ar      1 <0>         0.4205
     16 N2         -2.5763    5.5356    0.3586 N.ar      1 <0>        -0.6555
     17 C11        -3.7339    6.2273    0.4711 C.ar      1 <0>         0.5127
     18 O5         -3.7370    7.4404    0.5687 O.3       1 <0>        -0.5831
     19 C12        -4.9896    5.4582    0.4708 C.ar      1 <0>        -0.2353
     20 C13        -6.2297    6.0848    0.5818 C.ar      1 <0>        -0.0449
     21 C14        -7.3731    5.3378    0.5773 C.ar      1 <0>        -0.1499
     22 C15        -7.3133    3.9429    0.4620 C.ar      1 <0>        -0.1034
     23 C16        -6.0886    3.2970    0.3502 C.ar      1 <0>        -0.0690
     24 C17        -4.9107    4.0514    0.3536 C.ar      1 <0>         0.1936
     25 N3         -3.7030    3.4663    0.2422 N.ar      1 <0>        -0.6193
     26 C18        -8.5637    3.1519    0.4597 C.2       1 <0>         0.5142
     27 O6         -8.5169    1.9425    0.3603 O.2       1 <0>        -0.5135
     28 O7         -9.7538    3.7732    0.5677 O.3       1 <0>        -0.3550
     29 C19       -10.9387    2.9341    0.5584 C.3       1 <0>         0.0334
     30 Cl1         0.1730    4.3507    0.1270 Cl        1 <0>        -0.0567
     31 H1          0.8773   -3.3223    1.6447 H         1 <0>         0.0871
     32 H2         -0.3541   -2.4090    0.7087 H         1 <0>         0.0466
     33 H3          0.3855   -1.6775    2.1731 H         1 <0>         0.0464
     34 H4         -0.5580   -0.3345    0.8779 H         1 <0>         0.1211
     35 H5          0.7671    3.0111   -1.4655 H         1 <0>         0.1418
     36 H6         -2.2298    1.5410    0.1413 H         1 <0>         0.1514
     37 H7         -6.2863    7.1596    0.6711 H         1 <0>         0.1239
     38 H8         -8.3321    5.8269    0.6638 H         1 <0>         0.1226
     39 H9         -6.0462    2.2214    0.2618 H         1 <0>         0.1355
     40 H10       -11.8352    3.5645    0.6528 H         1 <0>         0.0983
     41 H11       -10.8955    2.2294    1.4019 H         1 <0>         0.0608
     42 H12       -10.9830    2.3727   -0.3865 H         1 <0>         0.0610
@<TRIPOS>BOND
     1    1    2 1
     2    1   31 1
     3    1   32 1
     4    1   33 1
     5    2    3 1
     6    3    8 ar
     7    3    4 ar
     8    4    5 ar
     9    4   34 1
    10    5    6 ar
    11    5   13 1
    12    6    7 ar
    13    6   35 1
    14    7    8 ar
    15    7   10 1
    16    8    9 1
    17   10   11 2
    18   10   12 1
    19   13   14 2
    20   13   36 1
    21   14   15 1
    22   14   30 1
    23   15   25 ar
    24   15   16 ar
    25   16   17 ar
    26   17   18 1
    27   17   19 ar
    28   19   24 ar
    29   19   20 ar
    30   20   21 ar
    31   20   37 1
    32   21   22 ar
    33   21   38 1
    34   22   23 ar
    35   22   26 1
    36   23   24 ar
    37   23   39 1
    38   24   25 ar
    39   26   27 2
    40   26   28 1
    41   28   29 1
    42   29   40 1
    43   29   41 1
    44   29   42 1
@<TRIPOS>MOLECULE
ZINC13449131
   48    49     0     0     0
SMALL
USER_CHARGES

@<TRIPOS>ATOM
      1 C1         -0.0127    1.0858    0.0080 C.3       1 <0>        -0.0912
      2 C2         -0.7416    1.5850   -1.2129 C.ar      1 <0>         0.1574
      3 C3         -2.1064    1.7992   -1.1728 C.ar      1 <0>        -0.2697
      4 C4         -2.7418    2.2620   -2.3247 C.ar      1 <0>         0.4447
      5 O1         -4.0784    2.4858   -2.3293 O.3       1 <0>        -0.6923
      6 N1         -2.0193    2.4807   -3.4162 N.ar      1 <0>        -0.6199
      7 C5         -0.7117    2.2634   -3.4154 C.ar      1 <0>         0.3067
      8 N2         -0.0804    1.8286   -2.3343 N.ar      1 <0>        -0.5841
      9 S1          0.2107    2.5664   -4.8858 S.3       1 <0>         0.0000
     10 C6         -1.0336    3.1415   -6.0738 C.3       1 <0>        -0.0982
     11 H1         -1.5699    3.9930   -5.6547 H         1 <0>         0.1145
     12 C7         -2.0214    2.0102   -6.3657 C.3       1 <0>        -0.1386
     13 C8         -0.3531    3.5566   -7.3527 C.2       1 <0>         0.5459
     14 O2          0.7236    3.0828   -7.6481 O.2       1 <0>        -0.5202
     15 N3         -0.9409    4.4542   -8.1683 N.am      1 <0>        -0.7278
     16 C9         -0.2793    4.8577   -9.4115 C.3       1 <0>         0.1803
     17 H2          0.2569    4.0063   -9.8306 H         1 <0>         0.1086
     18 C10         0.7085    5.9891   -9.1197 C.3       1 <0>        -0.1590
     19 C11        -1.3131    5.3355  -10.3985 C.ar      1 <0>        -0.0714
     20 C12        -2.5202    5.8358   -9.9472 C.ar      1 <0>        -0.0900
     21 C13        -3.4687    6.2741  -10.8516 C.ar      1 <0>        -0.0957
     22 C14        -3.2104    6.2130  -12.2098 C.ar      1 <0>        -0.0278
     23 C15        -2.0027    5.7130  -12.6619 C.ar      1 <0>        -0.0986
     24 C16        -1.0516    5.2788  -11.7558 C.ar      1 <0>        -0.0184
     25 Cl1         0.4669    4.6567  -12.3221 Cl        1 <0>        -0.0487
     26 Cl2        -4.4022    6.7632  -13.3458 Cl        1 <0>        -0.0600
     27 C17        -2.8905    1.5379    0.0873 C.3       1 <0>        -0.0162
     28 C18        -2.9300    2.8100    0.9364 C.3       1 <0>        -0.1649
     29 C19        -3.7141    2.5488    2.1966 C.2       1 <0>         0.4940
     30 O3         -4.1966    1.4472    2.3970 O.co2     1 <0>        -0.7029
     31 O4         -3.8659    3.4390    3.0157 O.co2     1 <0>        -0.7219
     32 H3          0.0021   -0.0041    0.0020 H         1 <0>         0.0635
     33 H4          1.0099    1.4631    0.0003 H         1 <0>         0.0608
     34 H5         -0.5229    1.4373    0.9048 H         1 <0>         0.0747
     35 H6         -2.5136    1.7100   -5.4406 H         1 <0>         0.1037
     36 H7         -2.7691    2.3558   -7.0795 H         1 <0>         0.0538
     37 H8         -1.4851    1.1587   -6.7847 H         1 <0>         0.0594
     38 H9         -1.8020    4.8332   -7.9320 H         1 <0>         0.4013
     39 H10         1.4562    5.6435   -8.4058 H         1 <0>         0.0747
     40 H11         1.2007    6.2893  -10.0447 H         1 <0>         0.0672
     41 H12         0.1722    6.8405   -8.7006 H         1 <0>         0.0615
     42 H13        -2.7222    5.8837   -8.8873 H         1 <0>         0.1448
     43 H14        -4.4118    6.6642  -10.4985 H         1 <0>         0.1444
     44 H15        -1.8006    5.6651  -13.7218 H         1 <0>         0.1451
     45 H16        -3.9072    1.2425   -0.1720 H         1 <0>         0.0640
     46 H17        -2.4129    0.7380    0.6532 H         1 <0>         0.0478
     47 H18        -1.9133    3.1055    1.1958 H         1 <0>         0.0443
     48 H19        -3.4076    3.6099    0.3706 H         1 <0>         0.0542
@<TRIPOS>BOND
     1    1   32 1
     2    1   33 1
     3    1   34 1
     4    1    2 1
     5    2    3 ar
     6    2    8 ar
     7    3    4 ar
     8    3   27 1
     9    4    6 ar
    10    4    5 1
    11    6    7 ar
    12    7    8 ar
    13    7    9 1
    14    9   10 1
    15   10   11 1
    16   10   12 1
    17   10   13 1
    18   12   35 1
    19   12   36 1
    20   12   37 1
    21   13   14 2
    22   13   15 am
    23   15   16 1
    24   15   38 1
    25   16   17 1
    26   16   18 1
    27   16   19 1
    28   18   39 1
    29   18   40 1
    30   18   41 1
    31   19   24 ar
    32   19   20 ar
    33   20   21 ar
    34   20   42 1
    35   21   22 ar
    36   21   43 1
    37   22   23 ar
    38   22   26 1
    39   23   24 ar
    40   23   44 1
    41   24   25 1
    42   27   28 1
    43   27   45 1
    44   27   46 1
    45   28   29 1
    46   28   47 1
    47   28   48 1
    48   29   30 2
    49   29   31 1
@<TRIPOS>MOLECULE
ZINC39709757
   39    41     0     0     0
SMALL
USER_CHARGES

@<TRIPOS>ATOM
      1 C1         -0.0167    1.3780    0.0096 C.ar      1 <0>         0.0402
      2 C2          1.1708    2.0857    0.0021 C.ar      1 <0>        -0.1351
      3 C3          2.3780    1.4104   -0.0131 C.ar      1 <0>         0.0445
      4 C4          2.3961    0.0268   -0.0207 C.ar      1 <0>        -0.0732
      5 C5          1.2084   -0.6796   -0.0132 C.ar      1 <0>         0.0569
      6 C6          0.0021   -0.0041    0.0020 C.ar      1 <0>        -0.5941
      7 S1         -1.5119   -0.9054    0.0122 S.o2      1 <0>         2.5537
      8 O1         -1.2184   -2.1862    0.5533 O.2       1 <0>        -1.0272
      9 O2         -2.4923   -0.0460    0.5775 O.2       1 <0>        -1.0262
     10 N1         -1.9484   -1.1474   -1.5668 N.2       1 <0>        -0.9806
     11 C7         -3.1154   -1.8387   -1.8667 C.ar      1 <0>         0.3085
     12 C8         -3.9198   -2.3223   -0.8445 C.ar      1 <0>        -0.2809
     13 C9         -5.0823   -3.0101   -1.1481 C.ar      1 <0>         0.1111
     14 C10        -5.4519   -3.2213   -2.4751 C.ar      1 <0>        -0.0636
     15 C11        -4.6651   -2.7487   -3.5012 C.ar      1 <0>        -0.0406
     16 C12        -3.4877   -2.0452   -3.2067 C.ar      1 <0>        -0.1834
     17 C13        -2.6453   -1.5316   -4.2928 C.2       1 <0>         0.5308
     18 O3         -2.9717   -1.7127   -5.4586 O.co2     1 <0>        -0.7322
     19 O4         -1.6161   -0.9220   -4.0331 O.co2     1 <0>        -0.6516
     20 O5         -6.6035   -3.9019   -2.7532 O.3       1 <0>        -0.3170
     21 C14        -6.6042   -5.2914   -2.4202 C.3       1 <0>         0.0533
     22 C15        -6.9689   -5.4959   -0.9582 C.3       1 <0>        -0.1774
     23 C16        -5.9315   -4.9072   -0.0151 C.3       1 <0>         0.0611
     24 O6         -5.8749   -3.4858   -0.1464 O.3       1 <0>        -0.3288
     25 N2          3.6873   -0.6964   -0.0374 N.pl3     1 <0>         0.0418
     26 O7          3.7030   -1.9053   -0.0441 O.2       1 <0>        -0.1607
     27 O8          4.7263   -0.0784   -0.0445 O.3       1 <0>        -0.1513
     28 Cl1         3.8696    2.2984   -0.0231 Cl        1 <0>        -0.0197
     29 H1         -0.9592    1.9051    0.0260 H         1 <0>         0.1663
     30 H2          1.1560    3.1655    0.0077 H         1 <0>         0.1595
     31 H3          1.2224   -1.7595   -0.0195 H         1 <0>         0.1739
     32 H4         -3.6392   -2.1627    0.1862 H         1 <0>         0.1031
     33 H5         -4.9551   -2.9153   -4.5281 H         1 <0>         0.1238
     34 H6         -7.3298   -5.8100   -3.0468 H         1 <0>         0.0824
     35 H7         -5.6125   -5.7047   -2.6037 H         1 <0>         0.0495
     36 H8         -7.9312   -5.0220   -0.7647 H         1 <0>         0.0722
     37 H9         -7.0579   -6.5645   -0.7626 H         1 <0>         0.0720
     38 H10        -6.1943   -5.1624    1.0115 H         1 <0>         0.0861
     39 H11        -4.9538   -5.3282   -0.2495 H         1 <0>         0.0530
@<TRIPOS>BOND
     1    1    6 ar
     2    1    2 ar
     3    1   29 1
     4    2    3 ar
     5    2   30 1
     6    3    4 ar
     7    3   28 1
     8    4    5 ar
     9    4   25 1
    10    5    6 ar
    11    5   31 1
    12    6    7 1
    13    7    8 2
    14    7    9 2
    15    7   10 1
    16   10   11 1
    17   11   16 ar
    18   11   12 ar
    19   12   13 ar
    20   12   32 1
    21   13   24 1
    22   13   14 ar
    23   14   15 ar
    24   14   20 1
    25   15   16 ar
    26   15   33 1
    27   16   17 1
    28   17   18 2
    29   17   19 1
    30   20   21 1
    31   21   22 1
    32   21   34 1
    33   21   35 1
    34   22   23 1
    35   22   36 1
    36   22   37 1
    37   23   24 1
    38   23   38 1
    39   23   39 1
    40   25   26 2
    41   25   27 1
@<TRIPOS>MOLECULE
ZINC13022946
   40    41     0     0     0
SMALL
USER_CHARGES
4,6-dimethyl-2-[2-oxo-2-[[(1S)-1-(2-thienyl)ethyl]amino]ethyl]sulfanyl-pyridine-3-carboxylic acid
@<TRIPOS>ATOM
      1 C1         -1.2989    1.9508   -2.5096 C.3       1 <0>        -0.1136
      2 C2         -1.9246    2.2897   -1.1812 C.ar      1 <0>        -0.0164
      3 C3         -3.1332    2.9600   -1.1175 C.ar      1 <0>        -0.1816
      4 C4         -3.6809    3.2629    0.1167 C.ar      1 <0>         0.1183
      5 N1         -3.0751    2.9204    1.2364 N.ar      1 <0>        -0.4995
      6 C5         -1.9191    2.2732    1.2343 C.ar      1 <0>         0.1097
      7 C6         -1.2994    1.9299    0.0187 C.ar      1 <0>        -0.1170
      8 C7         -0.0144    1.2111    0.0087 C.2       1 <0>         0.5011
      9 O1          0.0021   -0.0041    0.0020 O.co2     1 <0>        -0.6172
     10 S1         -1.1537    1.8407    2.7613 S.3       1 <0>         0.0502
     11 C8         -2.3664    2.5159    3.9231 C.3       1 <0>        -0.1569
     12 C9         -1.9083    2.2557    5.3350 C.2       1 <0>         0.5360
     13 O2         -0.8648    1.6714    5.5360 O.2       1 <0>        -0.5129
     14 N2         -2.6584    2.6724    6.3743 N.am      1 <0>        -0.7269
     15 C10        -2.2132    2.4195    7.7469 C.3       1 <0>         0.2293
     16 H1         -1.7018    1.4579    7.7917 H         1 <0>         0.1116
     17 C11        -1.2537    3.5282    8.1843 C.3       1 <0>        -0.1607
     18 C12        -3.4071    2.3968    8.6662 C.2       1 <0>        -0.1493
     19 C13        -3.6629    1.5746    9.7130 C.2       1 <0>        -0.1478
     20 C14        -4.8370    1.7395   10.4236 C.2       1 <0>        -0.1542
     21 C15        -5.6979    2.7185   10.0526 C.2       1 <0>        -0.1731
     22 S2         -4.8479    3.4509    8.6639 S.3       1 <0>         0.0401
     23 C16        -4.9950    3.9978    0.1820 C.3       1 <0>        -0.0924
     24 H2         -1.6497    0.9722   -2.8374 H         1 <0>         0.0741
     25 H3         -1.5803    2.7032   -3.2463 H         1 <0>         0.0658
     26 H4         -0.2140    1.9318   -2.4059 H         1 <0>         0.0813
     27 H5         -3.6434    3.2488   -2.0246 H         1 <0>         0.1293
     28 H6         -2.4627    3.5900    3.7644 H         1 <0>         0.1183
     29 H7         -3.3317    2.0366    3.7601 H         1 <0>         0.1175
     30 H8         -3.4931    3.1398    6.2136 H         1 <0>         0.4013
     31 H9         -0.3902    3.5446    7.5194 H         1 <0>         0.0747
     32 H10        -1.7651    4.4897    8.1396 H         1 <0>         0.0608
     33 H11        -0.9225    3.3400    9.2056 H         1 <0>         0.0703
     34 H12        -2.9600    0.8020    9.9876 H         1 <0>         0.1363
     35 H13        -5.0652    1.0976   11.2617 H         1 <0>         0.1351
     36 H14        -6.6492    2.9882   10.4869 H         1 <0>         0.1861
     37 H15        -4.8101    5.0718    0.2007 H         1 <0>         0.0715
     38 H16        -5.5951    3.7476   -0.6928 H         1 <0>         0.0698
     39 H17        -5.5302    3.7055    1.0854 H         1 <0>         0.0702
     40 O3          1.1435    1.9008    0.0013 O.co2     1 <0>        -0.7393
@<TRIPOS>BOND
     1    1    2 1
     2    1   24 1
     3    1   25 1
     4    1   26 1
     5    2    7 ar
     6    2    3 ar
     7    3    4 ar
     8    3   27 1
     9    4    5 ar
    10    4   23 1
    11    5    6 ar
    12    6    7 ar
    13    6   10 1
    14    7    8 1
    15    8    9 2
    16    8   40 1
    17   10   11 1
    18   11   12 1
    19   11   28 1
    20   11   29 1
    21   12   13 2
    22   12   14 am
    23   14   15 1
    24   14   30 1
    25   15   16 1
    26   15   17 1
    27   15   18 1
    28   17   31 1
    29   17   32 1
    30   17   33 1
    31   18   22 1
    32   18   19 2
    33   19   20 1
    34   19   34 1
    35   20   21 2
    36   20   35 1
    37   21   22 1
    38   21   36 1
    39   23   37 1
    40   23   38 1
    41   23   39 1
@<TRIPOS>MOLECULE
ZINC02392345
   34    34     0     0     0
SMALL
USER_CHARGES

@<TRIPOS>ATOM
      1 C1         -0.0187    1.5258    0.0104 C.3       1 <0>        -0.1857
      2 C2          0.0021   -0.0041    0.0020 C.3       1 <0>         0.1353
      3 C3          0.7421   -0.5109    1.2415 C.3       1 <0>        -0.1835
      4 C4         -1.4333   -0.5336    0.0129 C.3       1 <0>        -0.1371
      5 O1          0.6709   -0.4649   -1.1737 O.3       1 <0>        -0.3643
      6 C5          1.9522   -0.0848   -1.3367 C.2       1 <0>         0.6511
      7 O2          2.4879    0.6189   -0.5034 O.2       1 <0>        -0.5696
      8 N1          2.6407   -0.4850   -2.4240 N.am      1 <0>        -0.6752
      9 C6          4.0349   -0.0714   -2.6014 C.3       1 <0>         0.1009
     10 H1          4.5261   -0.0235   -1.6295 H         1 <0>         0.0891
     11 C7          4.7587   -1.0856   -3.4893 C.3       1 <0>        -0.0365
     12 C8          4.8240   -2.4152   -2.7829 C.2       1 <0>        -0.0985
     13 C9          3.9448   -3.4462   -2.8212 C.2       1 <0>        -0.1606
     14 C10         4.2132   -4.5840   -2.0828 C.2       1 <0>        -0.1056
     15 C11         5.3479   -4.6344   -1.3424 C.2       1 <0>        -0.1645
     16 S1          6.0833   -3.0440   -1.6847 S.3       1 <0>         0.0777
     17 Br1         3.0156   -6.0472   -2.1048 Br        1 <0>        -0.0492
     18 C12         4.0770    1.2868   -3.2529 C.2       1 <0>         0.4927
     19 O3          5.0007    2.0472   -3.0182 O.co2     1 <0>        -0.6862
     20 O4          3.1873    1.6254   -4.0147 O.co2     1 <0>        -0.6821
     21 H2          1.0039    1.9031    0.0027 H         1 <0>         0.0912
     22 H3         -0.5459    1.8868   -0.8726 H         1 <0>         0.0585
     23 H4         -0.5289    1.8773    0.9072 H         1 <0>         0.0628
     24 H5          0.2319   -0.1594    2.1383 H         1 <0>         0.0636
     25 H6          0.7568   -1.6008    1.2356 H         1 <0>         0.0550
     26 H7          1.7647   -0.1336    1.2338 H         1 <0>         0.0895
     27 H8         -1.9605   -0.1726   -0.8702 H         1 <0>         0.0648
     28 H9         -1.4185   -1.6235    0.0069 H         1 <0>         0.0629
     29 H10        -1.9435   -0.1821    0.9097 H         1 <0>         0.0749
     30 H11         2.2131   -1.0467   -3.0892 H         1 <0>         0.3969
     31 H12         4.2163   -1.1991   -4.4279 H         1 <0>         0.0979
     32 H13         5.7696   -0.7330   -3.6941 H         1 <0>         0.1027
     33 H14         3.0480   -3.3798   -3.4193 H         1 <0>         0.1405
     34 H15         5.7142   -5.4316   -0.7127 H         1 <0>         0.1907
@<TRIPOS>BOND
     1    1    2 1
     2    1   21 1
     3    1   22 1
     4    1   23 1
     5    2    3 1
     6    2    4 1
     7    2    5 1
     8    3   24 1
     9    3   25 1
    10    3   26 1
    11    4   27 1
    12    4   28 1
    13    4   29 1
    14    5    6 1
    15    6    7 2
    16    6    8 am
    17    8    9 1
    18    8   30 1
    19    9   10 1
    20    9   11 1
    21    9   18 1
    22   11   12 1
    23   11   31 1
    24   11   32 1
    25   12   16 1
    26   12   13 2
    27   13   14 1
    28   13   33 1
    29   14   15 2
    30   14   17 1
    31   15   16 1
    32   15   34 1
    33   18   19 2
    34   18   20 1
@<TRIPOS>MOLECULE
ZINC55566892
   44    45     0     0     0
SMALL
USER_CHARGES

@<TRIPOS>ATOM
      1 C1          0.7942    1.4444   -0.1558 C.3       1 <0>        -0.1110
      2 C2          0.5906   -0.0483   -0.1199 C.ar      1 <0>        -0.0766
      3 C3         -0.4896   -0.6120   -0.7751 C.ar      1 <0>        -0.1338
      4 C4         -0.6817   -1.9780   -0.7462 C.ar      1 <0>        -0.0857
      5 C5          0.2168   -2.7913   -0.0544 C.ar      1 <0>        -0.0821
      6 C6          1.3045   -2.2165    0.6039 C.ar      1 <0>        -0.0367
      7 C7          1.4879   -0.8496    0.5633 C.ar      1 <0>        -0.1218
      8 C8          0.0168   -4.2554   -0.0189 C.2       1 <0>         0.0147
      9 C9          0.1745   -4.9185    1.1181 C.2       1 <0>        -0.6813
     10 S1          0.1713   -4.0509    2.6517 S.o2      1 <0>         2.5788
     11 O1          1.3459   -4.4485    3.3457 O.2       1 <0>        -1.0394
     12 O2         -0.1112   -2.6916    2.3488 O.2       1 <0>        -1.0095
     13 N1         -1.1126   -4.6165    3.5315 N.2       1 <0>        -1.0330
     14 C10        -1.3646   -4.1066    4.7984 C.ar      1 <0>         0.3296
     15 C11        -0.5452   -3.1177    5.3291 C.ar      1 <0>        -0.2656
     16 C12        -0.7980   -2.6125    6.5877 C.ar      1 <0>        -0.0429
     17 C13        -1.8677   -3.0850    7.3318 C.ar      1 <0>        -0.2397
     18 C14        -2.6910   -4.0649    6.8227 C.ar      1 <0>        -0.0406
     19 C15        -2.4517   -4.5833    5.5473 C.ar      1 <0>        -0.2221
     20 C16        -3.3326   -5.6280    4.9938 C.2       1 <0>         0.5629
     21 O3         -3.1183   -6.0794    3.8852 O.2       1 <0>        -0.5019
     22 N2         -4.3753   -6.0827    5.7166 N.am      1 <0>        -0.7485
     23 C17        -5.2506   -7.1208    5.1666 C.3       1 <0>         0.1502
     24 C18        -6.3299   -7.4490    6.1658 C.2       1 <0>        -0.1648
     25 C19        -7.5903   -7.3751    5.8164 C.2       1 <0>        -0.1794
     26 H1          1.4066    1.7070   -1.0184 H         1 <0>         0.0652
     27 H2         -0.1729    1.9413   -0.2320 H         1 <0>         0.0633
     28 H3          1.2962    1.7647    0.7572 H         1 <0>         0.0642
     29 H4         -1.1842    0.0186   -1.3102 H         1 <0>         0.1171
     30 H5         -1.5257   -2.4168   -1.2575 H         1 <0>         0.1190
     31 H6          2.0034   -2.8405    1.1410 H         1 <0>         0.1057
     32 H7          2.3315   -0.4038    1.0693 H         1 <0>         0.1180
     33 H8         -0.2578   -4.7849   -0.9192 H         1 <0>         0.1239
     34 H9          0.3050   -5.9905    1.1044 H         1 <0>         0.1508
     35 H10         0.2905   -2.7445    4.7558 H         1 <0>         0.1032
     36 H11        -0.1581   -1.8442    6.9959 H         1 <0>         0.1048
     37 H12        -2.0565   -2.6828    8.3162 H         1 <0>         0.1056
     38 H13        -3.5229   -4.4296    7.4071 H         1 <0>         0.1057
     39 H14        -4.5462   -5.7226    6.6009 H         1 <0>         0.3914
     40 H15        -5.7065   -6.7605    4.2444 H         1 <0>         0.0641
     41 H16        -4.6652   -8.0160    4.9569 H         1 <0>         0.0688
     42 H17        -6.0644   -7.7451    7.1699 H         1 <0>         0.1122
     43 H18        -7.8559   -7.0790    4.8124 H         1 <0>         0.0986
     44 H19        -8.3639   -7.6103    6.5325 H         1 <0>         0.0985
@<TRIPOS>BOND
     1    1    2 1
     2    1   26 1
     3    1   27 1
     4    1   28 1
     5    2    7 ar
     6    2    3 ar
     7    3    4 ar
     8    3   29 1
     9    4    5 ar
    10    4   30 1
    11    5    6 ar
    12    5    8 1
    13    6    7 ar
    14    6   31 1
    15    7   32 1
    16    8    9 2
    17    8   33 1
    18    9   10 1
    19    9   34 1
    20   10   11 2
    21   10   12 2
    22   10   13 1
    23   13   14 1
    24   14   19 ar
    25   14   15 ar
    26   15   16 ar
    27   15   35 1
    28   16   17 ar
    29   16   36 1
    30   17   18 ar
    31   17   37 1
    32   18   19 ar
    33   18   38 1
    34   19   20 1
    35   20   21 2
    36   20   22 am
    37   22   23 1
    38   22   39 1
    39   23   24 1
    40   23   40 1
    41   23   41 1
    42   24   25 2
    43   24   42 1
    44   25   43 1
    45   25   44 1
@<TRIPOS>MOLECULE
ZINC45780657
   46    47     0     0     0
SMALL
USER_CHARGES

@<TRIPOS>ATOM
      1 C1         -0.0184    1.5028    0.0103 C.3       1 <0>        -0.1149
      2 C2          0.0021   -0.0041    0.0020 C.ar      1 <0>        -0.0900
      3 C3          0.0058   -0.6878   -1.2016 C.ar      1 <0>        -0.1164
      4 C4          0.0245   -2.0713   -1.2196 C.ar      1 <0>        -0.1172
      5 C5          0.0396   -2.7798   -0.0364 C.ar      1 <0>        -0.1104
      6 C6          0.0365   -2.0964    1.1834 C.ar      1 <0>        -0.0616
      7 C7          0.0228   -0.6980    1.1932 C.ar      1 <0>        -0.1000
      8 C8          0.0525   -2.8450    2.4508 C.2       1 <0>        -0.0386
      9 C9          0.0703   -4.1929    2.4373 C.2       1 <0>        -0.1938
     10 C10         0.0863   -4.9376    3.6980 C.2       1 <0>         0.5394
     11 O1          0.0836   -4.3396    4.7579 O.2       1 <0>        -0.5471
     12 N1          0.1041   -6.2852    3.6845 N.am      1 <0>        -0.7152
     13 C11         0.1201   -7.0302    4.9458 C.3       1 <0>         0.2101
     14 C12         1.5614   -7.1622    5.4419 C.3       1 <0>        -0.1442
     15 C13        -0.4633   -8.4022    4.7263 C.ar      1 <0>        -0.1669
     16 C14        -0.4269   -8.9761    3.4705 C.ar      1 <0>        -0.0780
     17 C15        -0.9624  -10.2347    3.2681 C.ar      1 <0>        -0.2260
     18 C16        -1.5356  -10.9234    4.3216 C.ar      1 <0>        -0.0687
     19 C17        -1.5749  -10.3557    5.5797 C.ar      1 <0>        -0.2531
     20 C18        -1.0331   -9.0934    5.7877 C.ar      1 <0>         0.2966
     21 N2         -1.0664   -8.5184    7.0602 N.2       1 <0>        -1.0926
     22 S1         -1.7462   -9.3441    8.3244 S.o2      1 <0>         2.5259
     23 O2         -3.1170   -9.4779    7.9749 O.2       1 <0>        -1.0311
     24 O3         -0.9256  -10.4923    8.4907 O.2       1 <0>        -1.0306
     25 C19        -1.5704   -8.2385    9.7517 C.3       1 <0>        -0.6371
     26 H1          1.0042    1.8801    0.0026 H         1 <0>         0.0703
     27 H2         -0.5455    1.8639   -0.8728 H         1 <0>         0.0658
     28 H3         -0.5286    1.8543    0.9071 H         1 <0>         0.0672
     29 H4         -0.0064   -0.1386   -2.1314 H         1 <0>         0.1211
     30 H5          0.0269   -2.5977   -2.1626 H         1 <0>         0.1244
     31 H6          0.0535   -3.8596   -0.0521 H         1 <0>         0.1280
     32 H7          0.0244   -0.1631    2.1314 H         1 <0>         0.1270
     33 H8          0.0501   -2.3144    3.3914 H         1 <0>         0.1360
     34 H9          0.0728   -4.7236    1.4966 H         1 <0>         0.1265
     35 H10         0.1063   -6.7617    2.8397 H         1 <0>         0.3940
     36 H11        -0.4728   -6.4980    5.6897 H         1 <0>         0.1061
     37 H12         1.9834   -6.1698    5.6007 H         1 <0>         0.0464
     38 H13         1.5733   -7.7165    6.3804 H         1 <0>         0.0746
     39 H14         2.1544   -7.6944    4.6981 H         1 <0>         0.0430
     40 H15         0.0200   -8.4410    2.6456 H         1 <0>         0.0986
     41 H16        -0.9333  -10.6809    2.2850 H         1 <0>         0.0999
     42 H17        -1.9533  -11.9061    4.1600 H         1 <0>         0.0997
     43 H18        -2.0230  -10.8938    6.4019 H         1 <0>         0.1021
     44 H19        -2.0936   -7.3031    9.5533 H         1 <0>         0.1155
     45 H20        -1.9982   -8.7139   10.6344 H         1 <0>         0.0999
     46 H21        -0.5139   -8.0342    9.9252 H         1 <0>         0.1154
@<TRIPOS>BOND
     1    1    2 1
     2    1   26 1
     3    1   27 1
     4    1   28 1
     5    2    7 ar
     6    2    3 ar
     7    3    4 ar
     8    3   29 1
     9    4    5 ar
    10    4   30 1
    11    5    6 ar
    12    5   31 1
    13    6    7 ar
    14    6    8 1
    15    7   32 1
    16    8    9 2
    17    8   33 1
    18    9   10 1
    19    9   34 1
    20   10   11 2
    21   10   12 am
    22   12   13 1
    23   12   35 1
    24   13   14 1
    25   13   15 1
    26   13   36 1
    27   14   37 1
    28   14   38 1
    29   14   39 1
    30   15   20 ar
    31   15   16 ar
    32   16   17 ar
    33   16   40 1
    34   17   18 ar
    35   17   41 1
    36   18   19 ar
    37   18   42 1
    38   19   20 ar
    39   19   43 1
    40   20   21 1
    41   21   22 1
    42   22   23 2
    43   22   24 2
    44   22   25 1
    45   25   44 1
    46   25   45 1
    47   25   46 1
@<TRIPOS>MOLECULE
ZINC62313399
   43    44     0     0     0
SMALL
USER_CHARGES

@<TRIPOS>ATOM
      1 C1         -0.8000    1.3487    0.0932 C.3       1 <0>        -0.1231
      2 C2         -0.2389   -0.0484    0.0276 C.2       1 <0>        -0.1669
      3 C3          0.1241   -0.6829    1.1603 C.2       1 <0>        -0.0379
      4 C4          0.1265    0.0420    2.4415 C.ar      1 <0>        -0.0665
      5 C5         -0.2615   -0.6078    3.6174 C.ar      1 <0>        -0.0998
      6 C6         -0.2561    0.0779    4.8137 C.ar      1 <0>        -0.1230
      7 C7          0.1317    1.4059    4.8525 C.ar      1 <0>        -0.1144
      8 C8          0.5166    2.0561    3.6929 C.ar      1 <0>        -0.1235
      9 C9          0.5225    1.3823    2.4899 C.ar      1 <0>        -0.1038
     10 C10        -0.0879   -0.7168   -1.2665 C.2       1 <0>         0.5488
     11 O1          0.3653   -1.8450   -1.3195 O.2       1 <0>        -0.5411
     12 N1         -0.4508   -0.0825   -2.3989 N.am      1 <0>        -0.7159
     13 C11        -0.2997   -0.7511   -3.6937 C.3       1 <0>         0.1320
     14 C12        -0.7814    0.1801   -4.8079 C.3       1 <0>        -0.6197
     15 S1         -0.5944   -0.6478   -6.4111 S.o2      1 <0>         2.5326
     16 O2          0.7830   -0.8163   -6.7172 O.2       1 <0>        -1.0224
     17 O3         -1.4964   -1.7418   -6.5052 O.2       1 <0>        -1.0224
     18 N2         -1.1433    0.4494   -7.5233 N.2       1 <0>        -1.0994
     19 C13        -1.1391    0.1277   -8.8825 C.ar      1 <0>         0.2792
     20 C14        -0.6801   -1.1143   -9.3025 C.ar      1 <0>        -0.2587
     21 C15        -0.6778   -1.4294  -10.6471 C.ar      1 <0>        -0.0713
     22 C16        -1.1312   -0.5098  -11.5751 C.ar      1 <0>        -0.2292
     23 C17        -1.5888    0.7275  -11.1604 C.ar      1 <0>        -0.0837
     24 C18        -1.5992    1.0469   -9.8168 C.ar      1 <0>        -0.1871
     25 H1          0.0151    2.0704    0.0413 H         1 <0>         0.0759
     26 H2         -1.4794    1.5070   -0.7444 H         1 <0>         0.0666
     27 H3         -1.3417    1.4790    1.0300 H         1 <0>         0.0779
     28 H4          0.4130   -1.7230    1.1278 H         1 <0>         0.1384
     29 H5         -0.5650   -1.6439    3.5885 H         1 <0>         0.1266
     30 H6         -0.5555   -0.4226    5.7227 H         1 <0>         0.1240
     31 H7          0.1335    1.9377    5.7925 H         1 <0>         0.1219
     32 H8          0.8172    3.0927    3.7311 H         1 <0>         0.1245
     33 H9          0.8274    1.8897    1.5866 H         1 <0>         0.1319
     34 H10        -0.8119    0.8168   -2.3567 H         1 <0>         0.4033
     35 H11         0.7497   -0.9981   -3.8548 H         1 <0>         0.0804
     36 H12        -0.8934   -1.6652   -3.7020 H         1 <0>         0.0805
     37 H13        -1.8308    0.4270   -4.6468 H         1 <0>         0.1279
     38 H14        -0.1877    1.0942   -4.7996 H         1 <0>         0.1279
     39 H15        -0.3252   -1.8327   -8.5783 H         1 <0>         0.0993
     40 H16        -0.3211   -2.3948  -10.9743 H         1 <0>         0.0997
     41 H17        -1.1276   -0.7584  -12.6261 H         1 <0>         0.0989
     42 H18        -1.9422    1.4434  -11.8878 H         1 <0>         0.1024
     43 H19        -1.9609    2.0117   -9.4933 H         1 <0>         0.1092
@<TRIPOS>BOND
     1    1    2 1
     2    1   25 1
     3    1   26 1
     4    1   27 1
     5    2    3 2
     6    2   10 1
     7    3    4 1
     8    3   28 1
     9    4    9 ar
    10    4    5 ar
    11    5    6 ar
    12    5   29 1
    13    6    7 ar
    14    6   30 1
    15    7    8 ar
    16    7   31 1
    17    8    9 ar
    18    8   32 1
    19    9   33 1
    20   10   11 2
    21   10   12 am
    22   12   13 1
    23   12   34 1
    24   13   14 1
    25   13   35 1
    26   13   36 1
    27   14   15 1
    28   14   37 1
    29   14   38 1
    30   15   16 2
    31   15   17 2
    32   15   18 1
    33   18   19 1
    34   19   24 ar
    35   19   20 ar
    36   20   21 ar
    37   20   39 1
    38   21   22 ar
    39   21   40 1
    40   22   23 ar
    41   22   41 1
    42   23   24 ar
    43   23   42 1
    44   24   43 1
@<TRIPOS>MOLECULE
ZINC13078826
   35    36     0     0     0
SMALL
USER_CHARGES
(3S)-3-(2-chlorophenyl)-3-[(5-methyl-2-thienyl)sulfonylamino]propanoic acid
@<TRIPOS>ATOM
      1 C1         -1.4237    2.6596    6.6605 C.3       1 <0>        -0.0762
      2 C2         -0.6790    2.2416    5.4188 C.2       1 <0>        -0.1165
      3 C3          0.0266    1.1076    5.1878 C.2       1 <0>        -0.1945
      4 C4          0.6344    0.9350    3.9583 C.2       1 <0>        -0.0093
      5 C5          0.5068    1.9050    3.0201 C.2       1 <0>        -0.7541
      6 S1         -0.4916    3.1146    3.8729 S.3       1 <0>         0.1720
      7 S2          1.1627    1.9609    1.3857 S.o2      1 <0>         2.7232
      8 O1          2.2956    1.1033    1.3731 O.2       1 <0>        -0.9632
      9 O2          1.2423    3.3335    1.0268 O.2       1 <0>        -0.9225
     10 N1          0.0379    1.2740    0.3830 N.pl3     1 <0>        -1.0834
     11 C6         -1.2677    1.9129    0.2002 C.3       1 <0>         0.2053
     12 H1         -1.1802    2.9813    0.3974 H         1 <0>         0.1101
     13 C7         -1.7443    1.6969   -1.2375 C.3       1 <0>        -0.1554
     14 C8         -0.8292    2.4285   -2.1854 C.2       1 <0>         0.4591
     15 O3          0.1505    2.9953   -1.7625 O.co2     1 <0>        -0.6163
     16 C9         -2.2623    1.3055    1.1557 C.ar      1 <0>        -0.0856
     17 C10        -2.0728    0.0194    1.6258 C.ar      1 <0>        -0.0953
     18 C11        -2.9852   -0.5379    2.5018 C.ar      1 <0>        -0.1149
     19 C12        -4.0873    0.1907    2.9091 C.ar      1 <0>        -0.1158
     20 C13        -4.2776    1.4766    2.4402 C.ar      1 <0>        -0.1099
     21 C14        -3.3620    2.0369    1.5670 C.ar      1 <0>        -0.0265
     22 Cl1        -3.5966    3.6549    0.9831 Cl        1 <0>        -0.0597
     23 H2         -0.7538    3.2164    7.3158 H         1 <0>         0.0839
     24 H3         -2.2678    3.2908    6.3828 H         1 <0>         0.0780
     25 H4         -1.7881    1.7740    7.1811 H         1 <0>         0.0834
     26 H5          0.1123    0.3500    5.9527 H         1 <0>         0.1370
     27 H6          1.2021    0.0406    3.7483 H         1 <0>         0.1430
     28 H7          0.2451    0.4508   -0.0864 H         1 <0>         0.4162
     29 H8         -1.7306    0.6318   -1.4687 H         1 <0>         0.0722
     30 H9         -2.7595    2.0790   -1.3450 H         1 <0>         0.0800
     31 H10        -1.2118   -0.5501    1.3083 H         1 <0>         0.1303
     32 H11        -2.8369   -1.5429    2.8685 H         1 <0>         0.1239
     33 H12        -4.7999   -0.2453    3.5936 H         1 <0>         0.1258
     34 H13        -5.1388    2.0456    2.7581 H         1 <0>         0.1304
     35 O4         -1.1025    2.4505   -3.4994 O.co2     1 <0>        -0.7749
@<TRIPOS>BOND
     1    1    2 1
     2    1   23 1
     3    1   24 1
     4    1   25 1
     5    2    6 1
     6    2    3 2
     7    3    4 1
     8    3   26 1
     9    4    5 2
    10    4   27 1
    11    5    6 1
    12    5    7 1
    13    7    8 2
    14    7    9 2
    15    7   10 1
    16   10   11 1
    17   10   28 1
    18   11   12 1
    19   11   13 1
    20   11   16 1
    21   13   14 1
    22   13   29 1
    23   13   30 1
    24   14   15 2
    25   14   35 1
    26   16   21 ar
    27   16   17 ar
    28   17   18 ar
    29   17   31 1
    30   18   19 ar
    31   18   32 1
    32   19   20 ar
    33   19   33 1
    34   20   21 ar
    35   20   34 1
    36   21   22 1
@<TRIPOS>MOLECULE
ZINC01802376
   43    43     0     0     0
SMALL
USER_CHARGES

@<TRIPOS>ATOM
      1 C1          2.0817    1.0997   -0.0066 C.3       1 <0>        -0.1237
      2 C2          1.4069   -0.2455    0.0723 C.ar      1 <0>        -0.0194
      3 C3          1.0225   -0.7551    1.2984 C.ar      1 <0>        -0.1520
      4 C4          0.4036   -1.9890    1.3708 C.ar      1 <0>         0.0322
      5 C5          0.1686   -2.7131    0.2170 C.ar      1 <0>        -0.6931
      6 C6          0.5521   -2.2031   -1.0093 C.ar      1 <0>         0.0294
      7 C7          1.1672   -0.9673   -1.0821 C.ar      1 <0>        -0.1557
      8 C8          0.2963   -2.9927   -2.2671 C.3       1 <0>        -0.1354
      9 S1         -0.6194   -4.2865    0.3093 S.o2      1 <0>         2.6943
     10 O1         -1.3371   -4.3099    1.5355 O.2       1 <0>        -0.9525
     11 O2         -1.2495   -4.4994   -0.9464 O.2       1 <0>        -0.9590
     12 N1          0.5756   -5.4256    0.4385 N.pl3     1 <0>        -1.1204
     13 C9          1.4345   -5.4550    1.6249 C.3       1 <0>         0.1121
     14 C10         2.1833   -6.7881    1.6796 C.3       1 <0>        -0.1399
     15 H1          2.7260   -6.9385    0.7463 H         1 <0>         0.1197
     16 C11         3.1718   -6.7703    2.8472 C.3       1 <0>        -0.0939
     17 C12         4.2391   -5.7034    2.5956 C.3       1 <0>        -0.1826
     18 C13         5.2825   -5.7708    3.6810 C.2       1 <0>         0.4905
     19 O3          5.1817   -6.5957    4.5731 O.co2     1 <0>        -0.6948
     20 O4          6.2273   -5.0004    3.6670 O.co2     1 <0>        -0.7035
     21 C14         1.1818   -7.9279    1.8765 C.3       1 <0>         0.4532
     22 F1          0.3547   -8.0215    0.7521 F         1 <0>        -0.1878
     23 F2          1.8734   -9.1319    2.0483 F         1 <0>        -0.1794
     24 F3          0.4016   -7.6726    3.0093 F         1 <0>        -0.1778
     25 C15        -0.0146   -2.5450    2.7076 C.3       1 <0>        -0.1456
     26 H2          1.3274    1.8784   -0.1194 H         1 <0>         0.0771
     27 H3          2.6509    1.2747    0.9063 H         1 <0>         0.0739
     28 H4          2.7547    1.1188   -0.8638 H         1 <0>         0.0719
     29 H5          1.2061   -0.1894    2.1999 H         1 <0>         0.1322
     30 H6          1.4635   -0.5672   -2.0405 H         1 <0>         0.1297
     31 H7         -0.7249   -2.8170   -2.6051 H         1 <0>         0.0940
     32 H8          0.9949   -2.6777   -3.0423 H         1 <0>         0.0726
     33 H9          0.4340   -4.0547   -2.0638 H         1 <0>         0.0779
     34 H10         0.7069   -6.0735   -0.2714 H         1 <0>         0.4204
     35 H11         2.1527   -4.6367    1.5739 H         1 <0>         0.0954
     36 H12         0.8218   -5.3455    2.5198 H         1 <0>         0.0966
     37 H13         2.6395   -6.5412    3.7704 H         1 <0>         0.0774
     38 H14         3.6479   -7.7469    2.9351 H         1 <0>         0.0860
     39 H15         4.7092   -5.8807    1.6283 H         1 <0>         0.0613
     40 H16         3.7749   -4.7172    2.5987 H         1 <0>         0.0615
     41 H17        -1.0691   -2.3281    2.8776 H         1 <0>         0.0952
     42 H18         0.1405   -3.6239    2.7170 H         1 <0>         0.0852
     43 H19         0.5825   -2.0853    3.4952 H         1 <0>         0.0765
@<TRIPOS>BOND
     1    1    2 1
     2    1   26 1
     3    1   27 1
     4    1   28 1
     5    2    7 ar
     6    2    3 ar
     7    3    4 ar
     8    3   29 1
     9    4    5 ar
    10    4   25 1
    11    5    6 ar
    12    5    9 1
    13    6    7 ar
    14    6    8 1
    15    7   30 1
    16    8   31 1
    17    8   32 1
    18    8   33 1
    19    9   10 2
    20    9   11 2
    21    9   12 1
    22   12   13 1
    23   12   34 1
    24   13   14 1
    25   13   35 1
    26   13   36 1
    27   14   15 1
    28   14   16 1
    29   14   21 1
    30   16   17 1
    31   16   37 1
    32   16   38 1
    33   17   18 1
    34   17   39 1
    35   17   40 1
    36   18   19 2
    37   18   20 1
    38   21   22 1
    39   21   23 1
    40   21   24 1
    41   25   41 1
    42   25   42 1
    43   25   43 1
@<TRIPOS>MOLECULE
ZINC02579387
   34    34     0     0     0
SMALL
USER_CHARGES

@<TRIPOS>ATOM
      1 C1         -0.0187    1.5258    0.0104 C.3       1 <0>        -0.1836
      2 C2          0.0021   -0.0041    0.0020 C.3       1 <0>         0.1354
      3 C3          0.7421   -0.5109    1.2415 C.3       1 <0>        -0.1852
      4 C4         -1.4333   -0.5336    0.0129 C.3       1 <0>        -0.1369
      5 O1          0.6709   -0.4649   -1.1737 O.3       1 <0>        -0.3646
      6 C5          1.9522   -0.0848   -1.3367 C.2       1 <0>         0.6559
      7 O2          2.4879    0.6189   -0.5034 O.2       1 <0>        -0.5707
      8 N1          2.6407   -0.4850   -2.4240 N.am      1 <0>        -0.6761
      9 C6          4.0349   -0.0714   -2.6014 C.3       1 <0>         0.0989
     10 H1          4.1672    0.9374   -2.2104 H         1 <0>         0.0911
     11 C7          4.3875   -0.0917   -4.0900 C.3       1 <0>        -0.0345
     12 C8          3.5687    0.9456   -4.8144 C.2       1 <0>        -0.0973
     13 C9          3.8626    2.2459   -5.0603 C.2       1 <0>        -0.1623
     14 C10         2.9497    3.0202   -5.7523 C.2       1 <0>        -0.1044
     15 C11         1.7878    2.4557   -6.1642 C.2       1 <0>        -0.1632
     16 S1          1.9636    0.7786   -5.5779 S.3       1 <0>         0.0691
     17 Br1         3.3159    4.8390   -6.1181 Br        1 <0>        -0.0484
     18 C12         4.9389   -1.0207   -1.8580 C.2       1 <0>         0.4925
     19 O3          4.4878   -2.0531   -1.3920 O.co2     1 <0>        -0.6781
     20 O4          6.1214   -0.7564   -1.7227 O.co2     1 <0>        -0.6901
     21 H2          1.0039    1.9031    0.0027 H         1 <0>         0.0893
     22 H3         -0.5459    1.8868   -0.8726 H         1 <0>         0.0547
     23 H4         -0.5289    1.8773    0.9072 H         1 <0>         0.0634
     24 H5          0.2319   -0.1594    2.1383 H         1 <0>         0.0620
     25 H6          0.7568   -1.6008    1.2356 H         1 <0>         0.0589
     26 H7          1.7647   -0.1336    1.2338 H         1 <0>         0.0915
     27 H8         -1.9605   -0.1726   -0.8702 H         1 <0>         0.0626
     28 H9         -1.4185   -1.6235    0.0069 H         1 <0>         0.0648
     29 H10        -1.9435   -0.1821    0.9097 H         1 <0>         0.0746
     30 H11         2.2131   -1.0467   -3.0892 H         1 <0>         0.3944
     31 H12         5.4474    0.1295   -4.2154 H         1 <0>         0.1150
     32 H13         4.1709   -1.0777   -4.5013 H         1 <0>         0.0864
     33 H14         4.7956    2.6707   -4.7205 H         1 <0>         0.1440
     34 H15         0.9701    2.9032   -6.7097 H         1 <0>         0.1906
@<TRIPOS>BOND
     1    1    2 1
     2    1   21 1
     3    1   22 1
     4    1   23 1
     5    2    3 1
     6    2    4 1
     7    2    5 1
     8    3   24 1
     9    3   25 1
    10    3   26 1
    11    4   27 1
    12    4   28 1
    13    4   29 1
    14    5    6 1
    15    6    7 2
    16    6    8 am
    17    8    9 1
    18    8   30 1
    19    9   10 1
    20    9   11 1
    21    9   18 1
    22   11   12 1
    23   11   31 1
    24   11   32 1
    25   12   16 1
    26   12   13 2
    27   13   14 1
    28   13   33 1
    29   14   15 2
    30   14   17 1
    31   15   16 1
    32   15   34 1
    33   18   19 2
    34   18   20 1
@<TRIPOS>MOLECULE
ZINC55726644
   39    40     0     0     0
SMALL
USER_CHARGES

@<TRIPOS>ATOM
      1 C1         -1.4155   -2.9322   -5.7564 C.3       1 <0>        -0.0749
      2 C2         -1.9549   -1.6658   -6.3699 C.2       1 <0>         0.1147
      3 C3         -1.6327   -0.4469   -5.8742 C.2       1 <0>        -0.2777
      4 S1         -2.5447    0.6156   -6.9819 S.3       1 <0>         0.0077
      5 C4         -3.2293   -0.5835   -7.9442 C.2       1 <0>         0.2794
      6 S2         -4.3077   -0.3965   -9.3250 S.3       1 <0>        -0.7475
      7 N1         -2.7584   -1.6950   -7.4182 N.2       1 <0>        -0.5753
      8 C5         -0.7484   -0.0869   -4.7083 C.3       1 <0>        -0.0204
      9 C6          0.6691    0.0898   -5.1886 C.2       1 <0>         0.5071
     10 O1          0.9350   -0.0617   -6.3623 O.2       1 <0>        -0.4940
     11 N2          1.6412    0.4162   -4.3141 N.am      1 <0>        -0.6791
     12 C7          2.9736    0.4856   -4.7416 C.ar      1 <0>         0.1464
     13 C8          3.9976    0.0935   -3.8898 C.ar      1 <0>        -0.1178
     14 C9          5.3113    0.1623   -4.3107 C.ar      1 <0>        -0.1653
     15 C10         5.6089    0.6229   -5.5841 C.ar      1 <0>         0.0788
     16 C11         4.5858    1.0152   -6.4378 C.ar      1 <0>         0.0924
     17 C12         3.2701    0.9412   -6.0191 C.ar      1 <0>        -0.1202
     18 F1          4.8758    1.4641   -7.6787 F         1 <0>        -0.1279
     19 O2          6.9031    0.6911   -5.9974 O.3       1 <0>        -0.2999
     20 C13         7.9040    0.2720   -5.0675 C.3       1 <0>         0.0601
     21 C14         9.2867    0.4192   -5.7058 C.3       1 <0>         0.0619
     22 O3          9.5535    1.8015   -5.9509 O.3       1 <0>        -0.3842
     23 C15        10.8272    2.0504   -6.5491 C.3       1 <0>         0.0308
     24 H1         -0.4714   -3.1939   -6.2342 H         1 <0>         0.0648
     25 H2         -1.2525   -2.7785   -4.6897 H         1 <0>         0.0605
     26 H3         -2.1325   -3.7403   -5.9017 H         1 <0>         0.0665
     27 H4         -1.0987    0.8429   -4.2600 H         1 <0>         0.1005
     28 H5         -0.7836   -0.8841   -3.9657 H         1 <0>         0.1062
     29 H6          1.4184    0.6030   -3.3887 H         1 <0>         0.4118
     30 H7          3.7667   -0.2652   -2.8976 H         1 <0>         0.1356
     31 H8          6.1072   -0.1426   -3.6474 H         1 <0>         0.1393
     32 H9          2.4738    1.2422   -6.6837 H         1 <0>         0.1606
     33 H10         7.8495    0.8907   -4.1718 H         1 <0>         0.0729
     34 H11         7.7367   -0.7711   -4.7993 H         1 <0>         0.0796
     35 H12        10.0428    0.0173   -5.0314 H         1 <0>         0.0723
     36 H13         9.3121   -0.1284   -6.6479 H         1 <0>         0.0627
     37 H14        10.9532    3.1222   -6.7026 H         1 <0>         0.0876
     38 H15        11.6152    1.6824   -5.8922 H         1 <0>         0.0408
     39 H16        10.8846    1.5367   -7.5087 H         1 <0>         0.0432
@<TRIPOS>BOND
     1    1    2 1
     2    1   24 1
     3    1   25 1
     4    1   26 1
     5    2    7 1
     6    2    3 2
     7    3    4 1
     8    3    8 1
     9    4    5 1
    10    5    6 1
    11    5    7 2
    12    8    9 1
    13    8   27 1
    14    8   28 1
    15    9   10 2
    16    9   11 am
    17   11   12 1
    18   11   29 1
    19   12   17 ar
    20   12   13 ar
    21   13   14 ar
    22   13   30 1
    23   14   15 ar
    24   14   31 1
    25   15   16 ar
    26   15   19 1
    27   16   17 ar
    28   16   18 1
    29   17   32 1
    30   19   20 1
    31   20   21 1
    32   20   33 1
    33   20   34 1
    34   21   22 1
    35   21   35 1
    36   21   36 1
    37   22   23 1
    38   23   37 1
    39   23   38 1
    40   23   39 1
@<TRIPOS>MOLECULE
ZINC65835703
   42    43     0     0     0
SMALL
USER_CHARGES

@<TRIPOS>ATOM
      1 C1          0.7351    1.4514   -1.0776 C.3       1 <0>        -0.1424
      2 C2          0.6219   -0.0635   -0.8957 C.3       1 <0>        -0.5979
      3 S1         -1.1146   -0.5635   -1.0542 S.o2      1 <0>         2.5176
      4 O1         -1.8707   -0.0595    0.0382 O.2       1 <0>        -1.0288
      5 O2         -1.5583   -0.3745   -2.3909 O.2       1 <0>        -1.0288
      6 N1         -1.1059   -2.2056   -0.8402 N.2       1 <0>        -1.0403
      7 C3         -2.2952   -2.9201   -0.9005 C.ar      1 <0>         0.3329
      8 C4         -3.4939   -2.2615   -1.1460 C.ar      1 <0>        -0.2597
      9 C5         -4.6740   -2.9735   -1.2059 C.ar      1 <0>        -0.0456
     10 C6         -4.6748   -4.3474   -1.0225 C.ar      1 <0>        -0.2397
     11 C7         -3.4965   -5.0178   -0.7782 C.ar      1 <0>        -0.0423
     12 C8         -2.2921   -4.3118   -0.7197 C.ar      1 <0>        -0.2255
     13 C9         -1.0265   -5.0239   -0.4646 C.2       1 <0>         0.5676
     14 O3          0.0189   -4.4052   -0.4103 O.2       1 <0>        -0.4983
     15 N2         -1.0284   -6.3605   -0.2915 N.am      1 <0>        -0.7465
     16 C10         0.2292   -7.0680   -0.0380 C.3       1 <0>         0.1872
     17 C11         0.5187   -7.0711    1.4643 C.3       1 <0>        -0.1556
     18 C12         0.1149   -8.4876   -0.5305 C.ar      1 <0>        -0.1239
     19 C13        -1.1219   -9.1024   -0.5855 C.ar      1 <0>        -0.0576
     20 C14        -1.2283  -10.4040   -1.0373 C.ar      1 <0>        -0.1569
     21 C15        -0.0954  -11.0942   -1.4352 C.ar      1 <0>         0.1224
     22 C16         1.1435  -10.4797   -1.3806 C.ar      1 <0>        -0.1889
     23 C17         1.2481   -9.1737   -0.9332 C.ar      1 <0>         0.1388
     24 F1          2.4561   -8.5707   -0.8846 F         1 <0>        -0.1248
     25 F2         -0.1995  -12.3670   -1.8761 F         1 <0>        -0.1335
     26 H1          1.7785    1.7518   -0.9824 H         1 <0>         0.0682
     27 H2          0.3663    1.7273   -2.0655 H         1 <0>         0.0637
     28 H3          0.1411    1.9543   -0.3145 H         1 <0>         0.0637
     29 H4          1.2160   -0.5665   -1.6588 H         1 <0>         0.1204
     30 H5          0.9908   -0.3394    0.0922 H         1 <0>         0.1204
     31 H6         -3.5018   -1.1911   -1.2897 H         1 <0>         0.1061
     32 H7         -5.6031   -2.4571   -1.3966 H         1 <0>         0.1042
     33 H8         -5.6043   -4.8952   -1.0711 H         1 <0>         0.1048
     34 H9         -3.5032   -6.0883   -0.6357 H         1 <0>         0.1025
     35 H10        -1.8623   -6.8540   -0.3348 H         1 <0>         0.3888
     36 H11         1.0412   -6.5654   -0.5635 H         1 <0>         0.1021
     37 H12         0.6013   -6.0443    1.8206 H         1 <0>         0.0726
     38 H13        -0.2933   -7.5738    1.9898 H         1 <0>         0.0569
     39 H14         1.4543   -7.5975    1.6530 H         1 <0>         0.0598
     40 H15        -2.0058   -8.5652   -0.2748 H         1 <0>         0.1436
     41 H16        -2.1951  -10.8833   -1.0799 H         1 <0>         0.1442
     42 H17         2.0274  -11.0171   -1.6907 H         1 <0>         0.1484
@<TRIPOS>BOND
     1    1    2 1
     2    1   26 1
     3    1   27 1
     4    1   28 1
     5    2    3 1
     6    2   29 1
     7    2   30 1
     8    3    4 2
     9    3    5 2
    10    3    6 1
    11    6    7 1
    12    7   12 ar
    13    7    8 ar
    14    8    9 ar
    15    8   31 1
    16    9   10 ar
    17    9   32 1
    18   10   11 ar
    19   10   33 1
    20   11   12 ar
    21   11   34 1
    22   12   13 1
    23   13   14 2
    24   13   15 am
    25   15   16 1
    26   15   35 1
    27   16   17 1
    28   16   18 1
    29   16   36 1
    30   17   37 1
    31   17   38 1
    32   17   39 1
    33   18   23 ar
    34   18   19 ar
    35   19   20 ar
    36   19   40 1
    37   20   21 ar
    38   20   41 1
    39   21   22 ar
    40   21   25 1
    41   22   23 ar
    42   22   42 1
    43   23   24 1
@<TRIPOS>MOLECULE
ZINC13189516
   42    43     0     0     0
SMALL
USER_CHARGES
(3R)-3-(4-methoxyphenyl)-3-[[(E)-3-(3-methyl-2-thienyl)prop-2-enoyl]amino]propanoic acid
@<TRIPOS>ATOM
      1 C1         -1.9599    0.0844    7.2895 C.3       1 <0>        -0.1032
      2 C2         -2.4672    1.4299    6.8388 C.2       1 <0>        -0.0893
      3 C3         -3.1283    2.2715    7.6978 C.2       1 <0>        -0.1640
      4 C4         -3.5668    3.4749    7.2425 C.2       1 <0>        -0.2039
      5 S1         -3.0623    3.4802    5.5840 S.3       1 <0>         0.1241
      6 C5         -2.2870    1.8742    5.5341 C.2       1 <0>        -0.1586
      7 C6         -1.6491    1.2243    4.4500 C.2       1 <0>         0.0196
      8 C7         -1.5771    1.8346    3.2407 C.2       1 <0>        -0.2039
      9 C8         -0.9397    1.1852    2.1574 C.2       1 <0>         0.5452
     10 O1         -0.4556    0.0782    2.3106 O.2       1 <0>        -0.5418
     11 N1         -0.8682    1.7915    0.9559 N.am      1 <0>        -0.7190
     12 C9         -0.1144    1.1689   -0.1351 C.3       1 <0>         0.2017
     13 H1         -0.2019    0.0847   -0.0647 H         1 <0>         0.1049
     14 C10         1.3586    1.5695   -0.0308 C.3       1 <0>        -0.1619
     15 C11         2.1608    0.8040   -1.0513 C.2       1 <0>         0.4691
     16 O2          1.6355   -0.0676   -1.7026 O.co2     1 <0>        -0.6328
     17 C12        -0.6687    1.6328   -1.4574 C.ar      1 <0>        -0.1068
     18 C13        -1.0563    2.9501   -1.6194 C.ar      1 <0>        -0.0838
     19 C14        -1.5595    3.3792   -2.8323 C.ar      1 <0>        -0.2154
     20 C15        -1.6868    2.4843   -3.8847 C.ar      1 <0>         0.1168
     21 C16        -1.3025    1.1618   -3.7179 C.ar      1 <0>        -0.1555
     22 C17        -0.7942    0.7391   -2.5049 C.ar      1 <0>        -0.0239
     23 O3         -2.1875    2.9025   -5.0769 O.3       1 <0>        -0.3214
     24 C18        -2.5626    4.2778   -5.1765 C.3       1 <0>         0.0297
     25 H2         -0.9427    0.1876    7.6674 H         1 <0>         0.0751
     26 H3         -2.6040   -0.3005    8.0802 H         1 <0>         0.0681
     27 H4         -1.9661   -0.6071    6.4470 H         1 <0>         0.0728
     28 H5         -3.2985    1.9808    8.7239 H         1 <0>         0.1339
     29 H6         -4.0971    4.2439    7.7844 H         1 <0>         0.1854
     30 H7         -1.2198    0.2426    4.5859 H         1 <0>         0.1514
     31 H8         -2.0065    2.8162    3.1048 H         1 <0>         0.1226
     32 H9         -1.3159    2.6402    0.8135 H         1 <0>         0.3938
     33 H10         1.4584    2.6387   -0.2178 H         1 <0>         0.0637
     34 H11         1.7278    1.3395    0.9686 H         1 <0>         0.0705
     35 H12        -0.9617    3.6452   -0.7982 H         1 <0>         0.1166
     36 H13        -1.8583    4.4092   -2.9595 H         1 <0>         0.1220
     37 H14        -1.4003    0.4633   -4.5358 H         1 <0>         0.1274
     38 H15        -0.4949   -0.2904   -2.3746 H         1 <0>         0.1464
     39 H16        -3.3361    4.4977   -4.4406 H         1 <0>         0.0514
     40 H17        -1.6923    4.9063   -4.9877 H         1 <0>         0.0530
     41 H18        -2.9455    4.4784   -6.1771 H         1 <0>         0.0943
     42 O4          3.4590    1.0906   -1.2368 O.co2     1 <0>        -0.7740
@<TRIPOS>BOND
     1    1    2 1
     2    1   25 1
     3    1   26 1
     4    1   27 1
     5    2    6 2
     6    2    3 1
     7    3    4 2
     8    3   28 1
     9    4    5 1
    10    4   29 1
    11    5    6 1
    12    6    7 1
    13    7    8 2
    14    7   30 1
    15    8    9 1
    16    8   31 1
    17    9   10 2
    18    9   11 am
    19   11   12 1
    20   11   32 1
    21   12   13 1
    22   12   14 1
    23   12   17 1
    24   14   15 1
    25   14   33 1
    26   14   34 1
    27   15   16 2
    28   15   42 1
    29   17   22 ar
    30   17   18 ar
    31   18   19 ar
    32   18   35 1
    33   19   20 ar
    34   19   36 1
    35   20   21 ar
    36   20   23 1
    37   21   22 ar
    38   21   37 1
    39   22   38 1
    40   23   24 1
    41   24   39 1
    42   24   40 1
    43   24   41 1
@<TRIPOS>MOLECULE
ZINC27056441
   46    48     0     0     0
SMALL
USER_CHARGES
(1R,4S,5S,6R)-6-[[2-(ethoxymethyl)phenyl]methylcarbamoyl]bicyclo[2.2.1]hept-2-ene-5-carboxylic acid
@<TRIPOS>ATOM
      1 C1         -2.3673    4.7792   -0.2283 C.3       1 <0>        -0.1516
      2 C2         -2.6345    4.5208    1.2558 C.3       1 <0>         0.0551
      3 O1         -1.6025    3.6876    1.7876 O.3       1 <0>        -0.3859
      4 C3         -1.7580    3.3840    3.1753 C.3       1 <0>         0.1029
      5 C4         -0.6206    2.5048    3.6276 C.ar      1 <0>        -0.0767
      6 C5          0.3557    2.1198    2.7276 C.ar      1 <0>        -0.1045
      7 C6          1.4009    1.3167    3.1433 C.ar      1 <0>        -0.1206
      8 C7          1.4655    0.8913    4.4572 C.ar      1 <0>        -0.1224
      9 C8          0.4869    1.2723    5.3559 C.ar      1 <0>        -0.0864
     10 C9         -0.5565    2.0788    4.9409 C.ar      1 <0>        -0.0889
     11 C10        -1.6238    2.4938    5.9206 C.3       1 <0>         0.1670
     12 N1         -2.8062    1.6475    5.7421 N.am      1 <0>        -0.7199
     13 C11        -3.8938    1.8376    6.5151 C.2       1 <0>         0.5287
     14 O2         -3.8936    2.7091    7.3585 O.2       1 <0>        -0.5438
     15 C12        -5.1102    0.9670    6.3316 C.3       1 <0>        -0.0832
     16 H1         -5.1345    0.7458    5.2544 H         1 <0>         0.0775
     17 C13        -6.3886    1.6910    6.8618 C.3       1 <0>        -0.0501
     18 H2         -6.5093    2.7360    6.5404 H         1 <0>         0.0956
     19 C14        -6.2762    1.3762    8.3985 C.3       1 <0>        -0.1056
     20 C15        -6.2438   -0.1795    8.1705 C.3       1 <0>        -0.0323
     21 H3         -6.2391   -0.8467    9.0451 H         1 <0>         0.0948
     22 C16        -5.0121   -0.2991    7.2174 C.3       1 <0>        -0.1228
     23 H4         -4.9819   -1.2355    6.6410 H         1 <0>         0.0791
     24 C17        -3.7270   -0.2968    8.0045 C.2       1 <0>         0.4613
     25 O3         -3.7008    0.1736    9.1171 O.co2     1 <0>        -0.6230
     26 O4         -2.6114   -0.8172    7.4694 O.co2     1 <0>        -0.7642
     27 C18        -7.4520   -0.3545    7.2424 C.2       1 <0>        -0.1715
     28 C19        -7.5464    0.7132    6.4755 C.2       1 <0>        -0.1929
     29 H5         -3.1617    5.4206   -0.6376 H         1 <0>         0.0700
     30 H6         -2.3530    3.8221   -0.7703 H         1 <0>         0.0630
     31 H7         -1.3951    5.2807   -0.3439 H         1 <0>         0.0622
     32 H8         -2.6488    5.4779    1.7978 H         1 <0>         0.0482
     33 H9         -3.6067    4.0193    1.3715 H         1 <0>         0.0496
     34 H10        -1.7540    4.3173    3.7575 H         1 <0>         0.0628
     35 H11        -2.7119    2.8588    3.3311 H         1 <0>         0.0674
     36 H12         0.3032    2.4491    1.7003 H         1 <0>         0.1291
     37 H13         2.1654    1.0187    2.4410 H         1 <0>         0.1191
     38 H14         2.2804    0.2610    4.7813 H         1 <0>         0.1213
     39 H15         0.5372    0.9397    6.3821 H         1 <0>         0.1303
     40 H16        -1.2436    2.3809    6.9466 H         1 <0>         0.0734
     41 H17        -1.8952    3.5450    5.7437 H         1 <0>         0.0635
     42 H18        -2.8063    0.8570    4.9772 H         1 <0>         0.4173
     43 H19        -5.3628    1.8380    8.8015 H         1 <0>         0.1067
     44 H20        -7.1543    1.7832    8.9214 H         1 <0>         0.0586
     45 H21        -8.1810   -1.1718    7.1395 H         1 <0>         0.1208
     46 H22        -8.3498    0.7838    5.7274 H         1 <0>         0.1210
@<TRIPOS>BOND
     1    1    2 1
     2    1   29 1
     3    1   30 1
     4    1   31 1
     5    2    3 1
     6    2   32 1
     7    2   33 1
     8    3    4 1
     9    4    5 1
    10    4   34 1
    11    4   35 1
    12    5   10 ar
    13    5    6 ar
    14    6    7 ar
    15    6   36 1
    16    7    8 ar
    17    7   37 1
    18    8    9 ar
    19    8   38 1
    20    9   10 ar
    21    9   39 1
    22   10   11 1
    23   11   12 1
    24   11   40 1
    25   11   41 1
    26   12   13 am
    27   12   42 1
    28   13   14 2
    29   13   15 1
    30   15   16 1
    31   15   22 1
    32   15   17 1
    33   17   18 1
    34   17   28 1
    35   17   19 1
    36   19   20 1
    37   19   43 1
    38   19   44 1
    39   20   21 1
    40   20   22 1
    41   20   27 1
    42   22   23 1
    43   22   24 1
    44   24   25 2
    45   24   26 1
    46   27   28 2
    47   27   45 1
    48   28   46 1
@<TRIPOS>MOLECULE
ZINC40512483
   43    45     0     0     0
SMALL
USER_CHARGES

@<TRIPOS>ATOM
      1 C1         -0.0187    1.5258    0.0104 C.3       1 <0>        -0.1629
      2 C2          0.0021   -0.0041    0.0020 C.3       1 <0>         0.0992
      3 C3          0.8321   -0.5345   -1.1909 C.3       1 <0>        -0.0998
      4 C4          2.2041   -0.7043   -0.5675 C.ar      1 <0>        -0.1391
      5 C5          3.4560   -0.8748   -1.1197 C.ar      1 <0>        -0.1114
      6 C6          4.5636   -0.9995   -0.3008 C.ar      1 <0>        -0.1083
      7 C7          4.4117   -0.9526    1.0728 C.ar      1 <0>        -0.1791
      8 C8          3.1569   -0.7857    1.6307 C.ar      1 <0>         0.1174
      9 C9          2.0340   -0.6622    0.8083 C.ar      1 <0>         0.0803
     10 O1          0.7214   -0.5101    1.1394 O.3       1 <0>        -0.2840
     11 O2          3.0158   -0.7416    2.9826 O.3       1 <0>        -0.3018
     12 C10         4.2051   -0.8741    3.7636 C.3       1 <0>         0.0481
     13 C11         3.8499   -0.8008    5.2500 C.3       1 <0>         0.1306
     14 N1          3.0190   -1.9520    5.6109 N.am      1 <0>        -0.7456
     15 C12         2.5834   -2.0980    6.8780 C.2       1 <0>         0.5489
     16 O3          2.8802   -1.2740    7.7217 O.2       1 <0>        -0.4665
     17 C13         1.7474   -3.2562    7.2411 C.ar      1 <0>        -0.2276
     18 C14         1.4029   -4.2154    6.2816 C.ar      1 <0>        -0.0273
     19 C15         0.6162   -5.2837    6.6730 C.ar      1 <0>        -0.2568
     20 C16         0.1952   -5.3749    7.9883 C.ar      1 <0>         0.1356
     21 N2          0.5299   -4.4615    8.8779 N.ar      1 <0>        -0.5111
     22 C17         1.2860   -3.4212    8.5589 C.ar      1 <0>         0.3411
     23 S1          1.7090   -2.2344    9.7907 S.3       1 <0>        -0.8010
     24 C18        -1.4217   -0.5633   -0.0317 C.3       1 <0>        -0.1420
     25 H1          1.0039    1.9031    0.0027 H         1 <0>         0.0616
     26 H2         -0.5459    1.8868   -0.8726 H         1 <0>         0.0733
     27 H3         -0.5289    1.8773    0.9072 H         1 <0>         0.0704
     28 H4          0.4428   -1.4902   -1.5420 H         1 <0>         0.0929
     29 H5          0.8598    0.1944   -2.0008 H         1 <0>         0.0919
     30 H6          3.5717   -0.9114   -2.1928 H         1 <0>         0.1243
     31 H7          5.5443   -1.1334   -0.7330 H         1 <0>         0.1298
     32 H8          5.2764   -1.0471    1.7130 H         1 <0>         0.1370
     33 H9          4.6754   -1.8338    3.5493 H         1 <0>         0.0685
     34 H10         4.8950   -0.0677    3.5147 H         1 <0>         0.0760
     35 H11         4.7644   -0.8125    5.8431 H         1 <0>         0.0850
     36 H12         3.3007    0.1199    5.4473 H         1 <0>         0.0735
     37 H13         2.7822   -2.6093    4.9379 H         1 <0>         0.3897
     38 H14         1.7428   -4.1234    5.2605 H         1 <0>         0.1157
     39 H15         0.3322   -6.0411    5.9573 H         1 <0>         0.1185
     40 H16        -0.4193   -6.2097    8.2914 H         1 <0>         0.1391
     41 H17        -1.9244   -0.2228   -0.9369 H         1 <0>         0.0772
     42 H18        -1.3844   -1.6527   -0.0247 H         1 <0>         0.0678
     43 H19        -1.9705   -0.2129    0.8424 H         1 <0>         0.0711
@<TRIPOS>BOND
     1    1    2 1
     2    1   25 1
     3    1   26 1
     4    1   27 1
     5    2   10 1
     6    2    3 1
     7    2   24 1
     8    3    4 1
     9    3   28 1
    10    3   29 1
    11    4    9 ar
    12    4    5 ar
    13    5    6 ar
    14    5   30 1
    15    6    7 ar
    16    6   31 1
    17    7    8 ar
    18    7   32 1
    19    8    9 ar
    20    8   11 1
    21    9   10 1
    22   11   12 1
    23   12   13 1
    24   12   33 1
    25   12   34 1
    26   13   14 1
    27   13   35 1
    28   13   36 1
    29   14   15 am
    30   14   37 1
    31   15   16 2
    32   15   17 1
    33   17   22 ar
    34   17   18 ar
    35   18   19 ar
    36   18   38 1
    37   19   20 ar
    38   19   39 1
    39   20   21 ar
    40   20   40 1
    41   21   22 ar
    42   22   23 1
    43   24   41 1
    44   24   42 1
    45   24   43 1
@<TRIPOS>MOLECULE
ZINC52538472
   34    36     0     0     0
SMALL
USER_CHARGES

@<TRIPOS>ATOM
      1 C1          0.6134   -1.0792    3.2364 C.3       1 <0>         0.0267
      2 O1         -0.2982   -2.1779    3.1736 O.3       1 <0>        -0.3352
      3 C2         -1.1684   -2.1921    2.1467 C.2       1 <0>         0.4193
      4 O2         -1.1544   -1.2974    1.3272 O.2       1 <0>        -0.4587
      5 C3         -2.1476   -3.3051    2.0165 C.2       1 <0>         0.4408
      6 O3         -2.0949   -4.2558    2.7784 O.2       1 <0>        -0.3984
      7 C4         -3.1249   -3.2609    1.0237 C.2       1 <0>        -0.3296
      8 C5         -3.1957   -4.2789    0.0778 C.2       1 <0>         0.3263
      9 N1         -4.1633   -4.2148   -0.9041 N.pl3     1 <0>        -0.6433
     10 C6         -4.7983   -3.0184   -1.1528 C.2       1 <0>         0.5336
     11 S1         -5.6698   -2.8121   -2.6702 S.3       1 <0>        -0.8227
     12 N2         -4.7741   -2.0414   -0.3048 N.2       1 <0>        -0.5784
     13 C7         -4.0992   -2.1171    0.9857 C.3       1 <0>         0.2466
     14 H1         -3.5622   -1.1849    1.1607 H         1 <0>         0.1000
     15 C8         -5.1245   -2.3059    2.0739 C.2       1 <0>        -0.0988
     16 C9         -5.2760   -1.6189    3.2325 C.2       1 <0>        -0.1828
     17 C10        -6.3006   -1.9703    4.0912 C.2       1 <0>        -0.1473
     18 C11        -7.1236   -2.9916    3.7492 C.2       1 <0>        -0.2030
     19 S2         -6.4596   -3.4874    2.1679 S.3       1 <0>         0.0542
     20 C12        -2.2870   -5.3657    0.1219 C.2       1 <0>        -0.1897
     21 C13        -2.5462   -6.7303    0.0337 C.2       1 <0>        -0.1008
     22 C14        -1.4481   -7.5499    0.1084 C.2       1 <0>        -0.1699
     23 C15        -0.2181   -6.9945    0.2588 C.2       1 <0>        -0.2408
     24 S3         -0.5130   -5.3410    0.2967 S.3       1 <0>         0.2117
     25 H2          1.2568   -1.1903    4.1092 H         1 <0>         0.1031
     26 H3          1.2248   -1.0624    2.3342 H         1 <0>         0.0624
     27 H4          0.0540   -0.1469    3.3136 H         1 <0>         0.0629
     28 H5         -4.6060   -0.8092    3.4812 H         1 <0>         0.1256
     29 H6         -6.4431   -1.4393    5.0208 H         1 <0>         0.1258
     30 H7         -7.9652   -3.3975    4.2909 H         1 <0>         0.1784
     31 H8         -3.5468   -7.1190   -0.0854 H         1 <0>         0.1460
     32 H9         -1.5606   -8.6224    0.0488 H         1 <0>         0.1359
     33 H10         0.7333   -7.5002    0.3331 H         1 <0>         0.1868
     34 H11        -4.3942   -5.0062   -1.4153 H         1 <0>         0.4134
@<TRIPOS>BOND
     1    1    2 1
     2    1   25 1
     3    1   26 1
     4    1   27 1
     5    2    3 1
     6    3    4 2
     7    3    5 1
     8    5    6 2
     9    5    7 1
    10    7   13 1
    11    7    8 2
    12    8    9 1
    13    8   20 1
    14    9   10 1
    15    9   34 1
    16   10   11 1
    17   10   12 2
    18   12   13 1
    19   13   14 1
    20   13   15 1
    21   15   19 1
    22   15   16 2
    23   16   17 1
    24   16   28 1
    25   17   18 2
    26   17   29 1
    27   18   19 1
    28   18   30 1
    29   20   24 1
    30   20   21 2
    31   21   22 1
    32   21   31 1
    33   22   23 2
    34   22   32 1
    35   23   24 1
    36   23   33 1
@<TRIPOS>MOLECULE
ZINC63711169
   34    35     0     0     0
SMALL
USER_CHARGES

@<TRIPOS>ATOM
      1 C1         -3.8024    0.9455    1.3222 C.3       1 <0>        -0.1389
      2 C2         -3.4108   -0.5274    1.1887 C.3       1 <0>        -0.0958
      3 S1         -1.9781   -0.6745    0.0857 S.3       1 <0>        -0.0934
      4 C3         -1.6546   -2.4059    0.0357 C.ar      1 <0>         0.0901
      5 C4         -0.5955   -2.8862   -0.7288 C.ar      1 <0>        -0.1227
      6 C5         -0.3501   -4.2461   -0.7607 C.ar      1 <0>        -0.0671
      7 C6         -1.1792   -5.0884   -0.0206 C.ar      1 <0>         0.1208
      8 C7         -2.2156   -4.5388    0.7182 C.ar      1 <0>         0.0765
      9 N1         -2.4185   -3.2349    0.7302 N.ar      1 <0>        -0.4709
     10 N2         -0.9677   -6.4736   -0.0240 N.am      1 <0>        -0.6816
     11 C8          0.2828   -6.9640   -0.1350 C.2       1 <0>         0.5698
     12 O1          1.2348   -6.2074   -0.1357 O.2       1 <0>        -0.4894
     13 C9          0.4965   -8.4184   -0.2557 C.ar      1 <0>        -0.3032
     14 C10        -0.5908   -9.3003   -0.2622 C.ar      1 <0>         0.0013
     15 C11        -0.3368  -10.6553   -0.3776 C.ar      1 <0>        -0.2793
     16 C12         0.9704  -11.0961   -0.4823 C.ar      1 <0>         0.1262
     17 N3          1.9800  -10.2475   -0.4741 N.ar      1 <0>        -0.5346
     18 C13         1.7926   -8.9425   -0.3720 C.ar      1 <0>         0.4541
     19 O2          2.8587   -8.1073   -0.3737 O.3       1 <0>        -0.6310
     20 C14         1.2457  -12.5724   -0.6075 C.3       1 <0>         0.5152
     21 F1          1.2587  -12.9314   -1.9596 F         1 <0>        -0.1785
     22 F2          2.4883  -12.8653   -0.0354 F         1 <0>        -0.1692
     23 F3          0.2457  -13.2912    0.0562 F         1 <0>        -0.1793
     24 H1         -4.6633    1.0339    1.9850 H         1 <0>         0.0730
     25 H2         -2.9657    1.5079    1.7366 H         1 <0>         0.0639
     26 H3         -4.0574    1.3442    0.3403 H         1 <0>         0.0636
     27 H4         -3.1558   -0.9261    2.1706 H         1 <0>         0.0887
     28 H5         -4.2475   -1.0898    0.7743 H         1 <0>         0.0885
     29 H6          0.0266   -2.2050   -1.2903 H         1 <0>         0.1403
     30 H7          0.4645   -4.6470   -1.3455 H         1 <0>         0.1542
     31 H8         -2.8619   -5.1848    1.2939 H         1 <0>         0.1586
     32 H9         -1.7212   -7.0795    0.0536 H         1 <0>         0.4061
     33 H10        -1.6026   -8.9320   -0.1787 H         1 <0>         0.1187
     34 H11        -1.1524  -11.3633   -0.3855 H         1 <0>         0.1252
@<TRIPOS>BOND
     1    1    2 1
     2    1   24 1
     3    1   25 1
     4    1   26 1
     5    2    3 1
     6    2   27 1
     7    2   28 1
     8    3    4 1
     9    4    9 ar
    10    4    5 ar
    11    5    6 ar
    12    5   29 1
    13    6    7 ar
    14    6   30 1
    15    7    8 ar
    16    7   10 1
    17    8    9 ar
    18    8   31 1
    19   10   11 am
    20   10   32 1
    21   11   12 2
    22   11   13 1
    23   13   18 ar
    24   13   14 ar
    25   14   15 ar
    26   14   33 1
    27   15   16 ar
    28   15   34 1
    29   16   17 ar
    30   16   20 1
    31   17   18 ar
    32   18   19 1
    33   20   21 1
    34   20   22 1
    35   20   23 1
@<TRIPOS>MOLECULE
ZINC13415275
   40    41     0     0     0
SMALL
USER_CHARGES
2-[2-[2-[[(1S,2S)-2-methylcyclohexyl]amino]-2-oxo-ethyl]sulfanylthiazol-4-yl]acetic acid
@<TRIPOS>ATOM
      1 C1         -0.6048    3.3205   -2.0237 C.3       1 <0>        -0.1494
      2 C2         -1.1045    3.4520   -0.5836 C.3       1 <0>        -0.0979
      3 H1         -0.3736    4.0061    0.0054 H         1 <0>         0.0758
      4 C3         -2.4397    4.1989   -0.5732 C.3       1 <0>        -0.1113
      5 C4         -2.9394    4.3303    0.8669 C.3       1 <0>        -0.1221
      6 C5         -3.1296    2.9371    1.4699 C.3       1 <0>        -0.1173
      7 C6         -1.7944    2.1902    1.4595 C.3       1 <0>        -0.1318
      8 C7         -1.2947    2.0587    0.0194 C.3       1 <0>         0.1517
      9 H2         -2.0256    1.5046   -0.5696 H         1 <0>         0.0909
     10 N1         -0.0162    1.3436    0.0094 N.am      1 <0>        -0.7211
     11 C8          0.0021   -0.0041    0.0020 C.2       1 <0>         0.5401
     12 O1         -1.0399   -0.6247    0.0086 O.2       1 <0>        -0.5153
     13 C9          1.3172   -0.7397   -0.0145 C.3       1 <0>        -0.1810
     14 S1          1.0107   -2.5236   -0.0211 S.3       1 <0>         0.1214
     15 C10         2.6689   -3.1189   -0.0402 C.2       1 <0>         0.0347
     16 N2          3.1025   -4.3657   -0.0456 N.2       1 <0>        -0.4375
     17 C11         4.3934   -4.6391   -0.0643 C.2       1 <0>         0.1198
     18 C12         5.2722   -3.6084   -0.0668 C.2       1 <0>        -0.2208
     19 S2          4.1523   -2.2162   -0.0489 S.3       1 <0>        -0.0066
     20 C13         4.8789   -6.0657   -0.0771 C.3       1 <0>        -0.1012
     21 C14         4.2804   -6.8105    1.0883 C.2       1 <0>         0.4682
     22 O2          3.5359   -6.2412    1.8509 O.co2     1 <0>        -0.6198
     23 H3         -1.3357    2.7664   -2.6127 H         1 <0>         0.0570
     24 H4         -0.4693    4.3131   -2.4533 H         1 <0>         0.0572
     25 H5          0.3464    2.7884   -2.0311 H         1 <0>         0.0566
     26 H6         -3.1706    3.6448   -1.1622 H         1 <0>         0.0658
     27 H7         -2.3042    5.1915   -1.0028 H         1 <0>         0.0669
     28 H8         -3.8906    4.8624    0.8743 H         1 <0>         0.0635
     29 H9         -2.2085    4.8844    1.4559 H         1 <0>         0.0622
     30 H10        -3.8605    2.3830    0.8809 H         1 <0>         0.0650
     31 H11        -3.4856    3.0307    2.4959 H         1 <0>         0.0652
     32 H12        -1.9299    1.1976    1.8891 H         1 <0>         0.0709
     33 H13        -1.0635    2.7443    2.0485 H         1 <0>         0.0641
     34 H14         0.8172    1.8399    0.0041 H         1 <0>         0.4018
     35 H15         1.8766   -0.4639   -0.9084 H         1 <0>         0.1219
     36 H16         1.8936   -0.4734    0.8715 H         1 <0>         0.1229
     37 H17         6.3520   -3.6238   -0.0771 H         1 <0>         0.1951
     38 H18         4.5760   -6.5443   -1.0084 H         1 <0>         0.0853
     39 H19         5.9660   -6.0803    0.0021 H         1 <0>         0.0838
     40 O3          4.5743   -8.1062    1.2790 O.co2     1 <0>        -0.7749
@<TRIPOS>BOND
     1    1    2 1
     2    1   23 1
     3    1   24 1
     4    1   25 1
     5    2    3 1
     6    2    8 1
     7    2    4 1
     8    4    5 1
     9    4   26 1
    10    4   27 1
    11    5    6 1
    12    5   28 1
    13    5   29 1
    14    6    7 1
    15    6   30 1
    16    6   31 1
    17    7    8 1
    18    7   32 1
    19    7   33 1
    20    8    9 1
    21    8   10 1
    22   10   11 am
    23   10   34 1
    24   11   12 2
    25   11   13 1
    26   13   14 1
    27   13   35 1
    28   13   36 1
    29   14   15 1
    30   15   19 1
    31   15   16 2
    32   16   17 1
    33   17   18 2
    34   17   20 1
    35   18   19 1
    36   18   37 1
    37   20   21 1
    38   20   38 1
    39   20   39 1
    40   21   22 2
    41   21   40 1
@<TRIPOS>MOLECULE
ZINC37742466
   32    32     0     0     0
SMALL
USER_CHARGES

@<TRIPOS>ATOM
      1 C1          0.0338    1.4066    0.0687 C.3       1 <0>         0.0327
      2 O1          0.0540   -0.0222    0.0566 O.3       1 <0>        -0.3909
      3 C2          0.6883   -0.5848   -1.0938 C.3       1 <0>         0.0811
      4 C3          0.6520   -2.1115   -1.0007 C.3       1 <0>        -0.1124
      5 S1          1.4571   -2.8256   -2.4610 S.3       1 <0>        -0.1699
      6 C4          1.3313   -4.6163   -2.1998 C.3       1 <0>        -0.1200
      7 C5          1.9710   -5.3389   -3.3573 C.2       1 <0>         0.5277
      8 O2          2.4632   -4.7081   -4.2686 O.2       1 <0>        -0.5183
      9 N1          1.9960   -6.6863   -3.3796 N.am      1 <0>        -0.6339
     10 C6          2.5027   -7.3544   -4.4903 C.ar      1 <0>         0.1782
     11 C7          3.5734   -6.8229   -5.1958 C.ar      1 <0>        -0.1109
     12 C8          4.0746   -7.4878   -6.2979 C.ar      1 <0>        -0.0758
     13 C9          3.5145   -8.6889   -6.7085 C.ar      1 <0>        -0.1232
     14 C10         2.4521   -9.2317   -6.0214 C.ar      1 <0>        -0.0635
     15 C11         1.9369   -8.5732   -4.8997 C.ar      1 <0>        -0.1451
     16 C12         0.8056   -9.1502   -4.1576 C.2       1 <0>         0.5257
     17 O3          0.3788  -10.2573   -4.4565 O.co2     1 <0>        -0.6739
     18 O4          0.2913   -8.5232   -3.2415 O.co2     1 <0>        -0.6848
     19 Br1         5.5331   -6.7560   -7.2536 Br        1 <0>        -0.0681
     20 H1          1.0560    1.7846    0.0479 H         1 <0>         0.0425
     21 H2         -0.5058    1.7698   -0.8059 H         1 <0>         0.0429
     22 H3         -0.4641    1.7552    0.9735 H         1 <0>         0.0870
     23 H4          0.1623   -0.2629   -1.9925 H         1 <0>         0.0606
     24 H5          1.7240   -0.2480   -1.1387 H         1 <0>         0.0600
     25 H6          1.1780   -2.4334   -0.1019 H         1 <0>         0.0893
     26 H7         -0.3837   -2.4482   -0.9558 H         1 <0>         0.0905
     27 H8          1.8431   -4.8855   -1.2758 H         1 <0>         0.1133
     28 H9          0.2814   -4.9004   -2.1297 H         1 <0>         0.1195
     29 H10         1.6610   -7.1902   -2.6216 H         1 <0>         0.4278
     30 H11         4.0148   -5.8882   -4.8830 H         1 <0>         0.1449
     31 H12         3.9138   -9.2005   -7.5717 H         1 <0>         0.1270
     32 H13         2.0195  -10.1666   -6.3457 H         1 <0>         0.1400
@<TRIPOS>BOND
     1    1    2 1
     2    1   20 1
     3    1   21 1
     4    1   22 1
     5    2    3 1
     6    3    4 1
     7    3   23 1
     8    3   24 1
     9    4    5 1
    10    4   25 1
    11    4   26 1
    12    5    6 1
    13    6    7 1
    14    6   27 1
    15    6   28 1
    16    7    8 2
    17    7    9 am
    18    9   10 1
    19    9   29 1
    20   10   15 ar
    21   10   11 ar
    22   11   12 ar
    23   11   30 1
    24   12   13 ar
    25   12   19 1
    26   13   14 ar
    27   13   31 1
    28   14   15 ar
    29   14   32 1
    30   15   16 1
    31   16   17 2
    32   16   18 1
@<TRIPOS>MOLECULE
ZINC42057759
   44    45     0     0     0
SMALL
USER_CHARGES

@<TRIPOS>ATOM
      1 C1         -0.2217    1.1546   -0.0407 C.3       1 <0>        -0.1711
      2 C2          0.0308   -0.3503    0.0708 C.3       1 <0>         0.0994
      3 N1          0.7198   -0.8204   -1.1336 N.am      1 <0>        -0.6091
      4 C3          2.1804   -0.7451   -1.2185 C.3       1 <0>         0.1590
      5 C4          2.7810   -2.0193   -0.6830 C.ar      1 <0>        -0.0962
      6 C5          3.0901   -2.1259    0.6609 C.ar      1 <0>        -0.1271
      7 C6          3.6408   -3.2933    1.1561 C.ar      1 <0>        -0.1050
      8 C7          3.8841   -4.3574    0.3096 C.ar      1 <0>        -0.1156
      9 C8          3.5750   -4.2536   -1.0401 C.ar      1 <0>         0.1502
     10 C9          3.0169   -3.0813   -1.5335 C.ar      1 <0>        -0.1222
     11 N2          3.8206   -5.3294   -1.9004 N.am      1 <0>        -0.6817
     12 C10         3.6648   -6.5936   -1.4600 C.2       1 <0>         0.5083
     13 O1          3.3860   -6.8010   -0.2979 O.2       1 <0>        -0.4969
     14 C11         3.8371   -7.7496   -2.4113 C.3       1 <0>        -0.0224
     15 C12         3.6111   -9.0446   -1.6745 C.2       1 <0>        -0.2734
     16 C13         2.4669   -9.7467   -1.4928 C.2       1 <0>         0.1131
     17 N3          2.5527  -10.8659   -0.7960 N.2       1 <0>        -0.5747
     18 C14         3.7042  -11.2728   -0.3037 C.2       1 <0>         0.2788
     19 S1          4.0396  -12.7194    0.6447 S.3       1 <0>        -0.7497
     20 S2          4.7790  -10.0797   -0.8073 S.3       1 <0>         0.0067
     21 C15         1.1539   -9.2718   -2.0601 C.3       1 <0>        -0.0740
     22 C16         0.0099   -1.3222   -2.1635 C.2       1 <0>         0.5128
     23 O2          0.5832   -1.8025   -3.1182 O.2       1 <0>        -0.5405
     24 C17        -1.4963   -1.2865   -2.1288 C.3       1 <0>        -0.1782
     25 H1          0.7300    1.6762   -0.1419 H         1 <0>         0.0588
     26 H2         -0.8407    1.3553   -0.9152 H         1 <0>         0.0579
     27 H3         -0.7343    1.5044    0.8553 H         1 <0>         0.0680
     28 H4          0.6498   -0.5510    0.9452 H         1 <0>         0.0804
     29 H5         -0.9210   -0.8719    0.1719 H         1 <0>         0.0850
     30 H6          2.4775   -0.6125   -2.2588 H         1 <0>         0.0897
     31 H7          2.5355    0.0999   -0.6286 H         1 <0>         0.0850
     32 H8          2.9011   -1.2952    1.3247 H         1 <0>         0.1175
     33 H9          3.8814   -3.3733    2.2060 H         1 <0>         0.1240
     34 H10         4.3147   -5.2689    0.6970 H         1 <0>         0.1397
     35 H11         2.7715   -2.9990   -2.5821 H         1 <0>         0.1305
     36 H12         4.1031   -5.1654   -2.8138 H         1 <0>         0.4094
     37 H13         3.1149   -7.6627   -3.2232 H         1 <0>         0.1055
     38 H14         4.8472   -7.7360   -2.8206 H         1 <0>         0.1000
     39 H15         1.0216   -9.6812   -3.0616 H         1 <0>         0.0651
     40 H16         0.3386   -9.6079   -1.4196 H         1 <0>         0.0668
     41 H17         1.1521   -8.1830   -2.1095 H         1 <0>         0.0586
     42 H18        -1.8506   -0.3948   -2.6458 H         1 <0>         0.0931
     43 H19        -1.8923   -2.1741   -2.6223 H         1 <0>         0.0921
     44 H20        -1.8355   -1.2649   -1.0931 H         1 <0>         0.0824
@<TRIPOS>BOND
     1    1    2 1
     2    1   25 1
     3    1   26 1
     4    1   27 1
     5    2    3 1
     6    2   28 1
     7    2   29 1
     8    3    4 1
     9    3   22 am
    10    4    5 1
    11    4   30 1
    12    4   31 1
    13    5   10 ar
    14    5    6 ar
    15    6    7 ar
    16    6   32 1
    17    7    8 ar
    18    7   33 1
    19    8    9 ar
    20    8   34 1
    21    9   10 ar
    22    9   11 1
    23   10   35 1
    24   11   12 am
    25   11   36 1
    26   12   13 2
    27   12   14 1
    28   14   15 1
    29   14   37 1
    30   14   38 1
    31   15   20 1
    32   15   16 2
    33   16   17 1
    34   16   21 1
    35   17   18 2
    36   18   19 1
    37   18   20 1
    38   21   39 1
    39   21   40 1
    40   21   41 1
    41   22   23 2
    42   22   24 1
    43   24   42 1
    44   24   43 1
    45   24   44 1
@<TRIPOS>MOLECULE
ZINC52215032
   33    34     0     0     0
SMALL
USER_CHARGES

@<TRIPOS>ATOM
      1 C1         -0.0166    1.3758    0.0096 C.ar      1 <0>        -0.1293
      2 C2          1.1872    2.0881    0.0019 C.ar      1 <0>         0.0576
      3 C3          2.4020    1.3948   -0.0134 C.ar      1 <0>        -0.1374
      4 C4          2.4049    0.0148   -0.0208 C.ar      1 <0>         0.0719
      5 C5          1.2089   -0.6837   -0.0132 C.ar      1 <0>        -0.6956
      6 C6          0.0021   -0.0041    0.0020 C.ar      1 <0>         0.0652
      7 Cl1        -1.4906   -0.8903    0.0115 Cl        1 <0>        -0.0236
      8 S1          1.2226   -2.4456   -0.0227 S.o2      1 <0>         2.6850
      9 O1         -0.0247   -2.8585   -0.5639 O.2       1 <0>        -0.9408
     10 O2          2.4658   -2.8389   -0.5876 O.2       1 <0>        -0.9431
     11 N1          1.2416   -2.9437    1.5565 N.pl3     1 <0>        -1.0993
     12 C7          0.0977   -2.6617    2.4272 C.3       1 <0>         0.1178
     13 C8          0.4415   -1.7571    3.6223 C.3       1 <0>        -0.1571
     14 C9         -0.4776   -2.6558    4.4663 C.3       1 <0>        -0.1407
     15 C10        -0.1859   -3.7735    3.4511 C.3       1 <0>        -0.1415
     16 Cl2         3.9112   -0.8478   -0.0404 Cl        1 <0>        -0.0217
     17 C11         1.1757    3.5591    0.0095 C.2       1 <0>        -0.1447
     18 C12         2.3406    4.2439    0.0020 C.2       1 <0>        -0.1198
     19 C13         2.3295    5.6598    0.0093 C.2       1 <0>         0.4958
     20 O3          1.2640    6.2639    0.0223 O.co2     1 <0>        -0.6852
     21 O4          3.3855    6.2806    0.0025 O.co2     1 <0>        -0.6879
     22 H1         -0.9583    1.9043    0.0259 H         1 <0>         0.1514
     23 H2          3.3354    1.9382   -0.0197 H         1 <0>         0.1523
     24 H3          2.0100   -3.4221    1.9049 H         1 <0>         0.4187
     25 H4         -0.7857   -2.3410    1.8750 H         1 <0>         0.1187
     26 H5          1.4895   -1.8040    3.9182 H         1 <0>         0.0892
     27 H6          0.0759   -0.7357    3.5162 H         1 <0>         0.0741
     28 H7         -0.0910   -2.8609    5.4646 H         1 <0>         0.0740
     29 H8         -1.5186   -2.3325    4.4726 H         1 <0>         0.0845
     30 H9         -1.0580   -4.3800    3.2068 H         1 <0>         0.0752
     31 H10         0.6906   -4.3716    3.7002 H         1 <0>         0.0879
     32 H11         0.2362    4.0917    0.0209 H         1 <0>         0.1423
     33 H12         3.2801    3.7113   -0.0095 H         1 <0>         0.1062
@<TRIPOS>BOND
     1    1    6 ar
     2    1    2 ar
     3    1   22 1
     4    2    3 ar
     5    2   17 1
     6    3    4 ar
     7    3   23 1
     8    4    5 ar
     9    4   16 1
    10    5    6 ar
    11    5    8 1
    12    6    7 1
    13    8    9 2
    14    8   10 2
    15    8   11 1
    16   11   12 1
    17   11   24 1
    18   12   15 1
    19   12   13 1
    20   12   25 1
    21   13   14 1
    22   13   26 1
    23   13   27 1
    24   14   15 1
    25   14   28 1
    26   14   29 1
    27   15   30 1
    28   15   31 1
    29   17   18 2
    30   17   32 1
    31   18   19 1
    32   18   33 1
    33   19   20 2
    34   19   21 1
@<TRIPOS>MOLECULE
ZINC62826471
   26    26     0     0     0
SMALL
USER_CHARGES

@<TRIPOS>ATOM
      1 C1         -0.0177    1.3758    0.0440 C.ar      1 <0>        -0.1404
      2 C2          1.0316    1.8305    0.8121 C.ar      1 <0>        -0.0608
      3 C3          2.2573    1.1578    0.7870 C.ar      1 <0>        -0.1456
      4 C4          2.4077    0.0210   -0.0238 C.ar      1 <0>         0.1976
      5 C5          1.3379   -0.4218   -0.7912 C.ar      1 <0>        -0.1033
      6 C6          0.1339    0.2539   -0.7551 C.ar      1 <0>        -0.0883
      7 Br1         1.5301   -1.9514   -1.8863 Br        1 <0>        -0.0381
      8 N1          3.6224   -0.6579   -0.0587 N.am      1 <0>        -0.6361
      9 C7          3.6538   -1.9927    0.1249 C.2       1 <0>         0.5172
     10 O1          2.6180   -2.6159    0.2229 O.2       1 <0>        -0.4942
     11 C8          4.9760   -2.7109    0.2083 C.3       1 <0>        -0.1204
     12 S1          4.6862   -4.4844    0.4562 S.3       1 <0>        -0.1372
     13 C9          6.3535   -5.1948    0.5345 C.3       1 <0>        -0.0283
     14 C10         6.2579   -6.6498    0.7362 C.1       1 <0>         0.2271
     15 N2          6.1842   -7.7726    0.8918 N.1       1 <0>        -0.4140
     16 C11         3.3825    1.6383    1.6046 C.2       1 <0>         0.5260
     17 O2          3.2820    2.6861    2.2282 O.co2     1 <0>        -0.6787
     18 O3          4.4184    0.9899    1.6609 O.co2     1 <0>        -0.6820
     19 H1         -0.9650    1.8940    0.0681 H         1 <0>         0.1256
     20 H2          0.9078    2.7057    1.4327 H         1 <0>         0.1359
     21 H3         -0.6951   -0.0946   -1.3533 H         1 <0>         0.1264
     22 H4          4.4462   -0.1704   -0.2152 H         1 <0>         0.4211
     23 H5          5.5309   -2.5594   -0.7175 H         1 <0>         0.1126
     24 H6          5.5516   -2.3164    1.0457 H         1 <0>         0.1230
     25 H7          6.8794   -4.9910   -0.3982 H         1 <0>         0.1266
     26 H8          6.9001   -4.7480    1.3650 H         1 <0>         0.1283
@<TRIPOS>BOND
     1    1    6 ar
     2    1    2 ar
     3    1   19 1
     4    2    3 ar
     5    2   20 1
     6    3    4 ar
     7    3   16 1
     8    4    5 ar
     9    4    8 1
    10    5    6 ar
    11    5    7 1
    12    6   21 1
    13    8    9 am
    14    8   22 1
    15    9   10 2
    16    9   11 1
    17   11   12 1
    18   11   23 1
    19   11   24 1
    20   12   13 1
    21   13   14 1
    22   13   25 1
    23   13   26 1
    24   14   15 3
    25   16   17 2
    26   16   18 1
@<TRIPOS>MOLECULE
ZINC09110743
   30    32     0     0     0
SMALL
USER_CHARGES
2-[[4-amino-5-(2,4,5,6-tetrahydrocyclopenta[d]pyrazol-3-yl)-1,2,4-triazol-3-yl]sulfanyl]acetic acid
@<TRIPOS>ATOM
      1 C1         -0.0801    3.7599    0.4632 C.3       1 <0>        -0.1173
      2 C2         -0.9523    2.5642    0.0302 C.3       1 <0>        -0.0422
      3 C3         -0.0166    1.3761    0.0096 C.2       1 <0>        -0.2003
      4 C4          1.3051    1.8189   -0.0006 C.2       1 <0>         0.0483
      5 N1          2.0958    0.7720   -0.0137 N.2       1 <0>        -0.2604
      6 N2          1.3116   -0.3872   -0.0125 N.pl3     1 <0>        -0.4587
      7 H1          1.6504   -1.3280   -0.0208 H         1 <0>         0.4531
      8 C5          0.0021   -0.0041    0.0020 C.2       1 <0>         0.1749
      9 C6         -1.1709   -0.8956    0.0088 C.2       1 <0>         0.2470
     10 N3         -2.4324   -0.5272    0.0228 N.2       1 <0>        -0.2366
     11 N4         -3.1919   -1.5638    0.0244 N.2       1 <0>        -0.2793
     12 C7         -2.4635   -2.6580    0.0116 C.2       1 <0>         0.1374
     13 N5         -1.1530   -2.2725   -0.0043 N.pl3     1 <0>        -0.3136
     14 N6         -0.0541   -3.0836   -0.0264 N.3       1 <0>        -0.5920
     15 S1         -3.0656   -4.3139    0.0083 S.3       1 <0>         0.0434
     16 C8         -4.8481   -4.0003    0.0262 C.3       1 <0>        -0.1366
     17 C9         -5.5890   -5.3126    0.0260 C.2       1 <0>         0.4821
     18 O1         -4.9750   -6.3531    0.0149 O.co2     1 <0>        -0.6209
     19 C10         1.3310    3.3328    0.0067 C.3       1 <0>        -0.0314
     20 H2         -0.1144    3.8876    1.5451 H         1 <0>         0.0743
     21 H3         -0.3899    4.6744   -0.0427 H         1 <0>         0.0836
     22 H4         -1.3649    2.7379   -0.9637 H         1 <0>         0.0788
     23 H5         -1.7542    2.4017    0.7503 H         1 <0>         0.0793
     24 H6          0.2491   -3.3071    0.9097 H         1 <0>         0.3651
     25 H7         -0.2342   -3.9220   -0.5580 H         1 <0>         0.3854
     26 H8         -5.1088   -3.4360    0.9215 H         1 <0>         0.1030
     27 H9         -5.1249   -3.4266   -0.8583 H         1 <0>         0.1033
     28 H10         2.0814    3.6947    0.7095 H         1 <0>         0.0810
     29 H11         1.5371    3.7122   -0.9941 H         1 <0>         0.0888
     30 O2         -6.9312   -5.3255    0.0381 O.co2     1 <0>        -0.7397
@<TRIPOS>BOND
     1    1   19 1
     2    1    2 1
     3    1   20 1
     4    1   21 1
     5    2    3 1
     6    2   22 1
     7    2   23 1
     8    3    8 2
     9    3    4 1
    10    4    5 2
    11    4   19 1
    12    5    6 1
    13    6    7 1
    14    6    8 1
    15    8    9 1
    16    9   13 1
    17    9   10 2
    18   10   11 1
    19   11   12 2
    20   12   13 1
    21   12   15 1
    22   13   14 1
    23   14   24 1
    24   14   25 1
    25   15   16 1
    26   16   17 1
    27   16   26 1
    28   16   27 1
    29   17   18 2
    30   17   30 1
    31   19   28 1
    32   19   29 1
@<TRIPOS>MOLECULE
ZINC40547565
   42    42     0     0     0
SMALL
USER_CHARGES

@<TRIPOS>ATOM
      1 C1         -0.0206    1.5275    0.0149 C.3       1 <0>        -0.1481
      2 C2          0.0009   -0.0024    0.0060 C.3       1 <0>        -0.1176
      3 C3         -1.4342   -0.5326    0.0154 C.3       1 <0>        -0.0776
      4 H1         -1.9720   -0.1105    0.8644 H         1 <0>         0.0567
      5 C4         -2.1352   -0.1301   -1.2836 C.3       1 <0>        -0.1423
      6 C5         -1.4136   -2.0580    0.1323 C.3       1 <0>         0.0912
      7 H2         -0.9142   -2.3448    1.0577 H         1 <0>         0.0776
      8 C6         -0.6701   -2.6417   -1.0415 C.2       1 <0>         0.4966
      9 O1          0.5368   -2.4946   -1.1328 O.co2     1 <0>        -0.6953
     10 O2         -1.2754   -3.2610   -1.8997 O.co2     1 <0>        -0.6887
     11 N1         -2.7877   -2.5658    0.1413 N.am      1 <0>        -0.7104
     12 C7         -3.0645   -3.7508    0.7205 C.2       1 <0>         0.7114
     13 O3         -2.1622   -4.4412    1.1537 O.2       1 <0>        -0.5859
     14 N2         -4.3414   -4.1705    0.8197 N.am      1 <0>        -0.6329
     15 C8         -4.6699   -5.4024    1.5500 C.3       1 <0>         0.1283
     16 C9         -5.7400   -5.0834    2.5987 C.3       1 <0>        -0.1343
     17 C10        -6.9375   -4.4202    1.9143 C.3       1 <0>        -0.0969
     18 C11        -6.4930   -3.1084    1.2633 C.3       1 <0>        -0.1262
     19 H3         -6.0726   -2.4494    2.0230 H         1 <0>         0.1031
     20 C12        -5.4320   -3.4017    0.2047 C.3       1 <0>         0.1278
     21 C13        -7.6794   -2.4397    0.6181 C.2       1 <0>         0.5269
     22 O4         -8.7732   -2.9607    0.6733 O.2       1 <0>        -0.5417
     23 N3         -7.5250   -1.2627   -0.0201 N.am      1 <0>        -0.8550
     24 H4          1.0018    1.9052    0.0082 H         1 <0>         0.0484
     25 H5         -0.5472    1.8886   -0.8685 H         1 <0>         0.0508
     26 H6         -0.5317    1.8784    0.9114 H         1 <0>         0.0433
     27 H7          0.5121   -0.3533   -0.8905 H         1 <0>         0.0923
     28 H8          0.5275   -0.3635    0.8894 H         1 <0>         0.0574
     29 H9         -3.1576   -0.5079   -1.2769 H         1 <0>         0.0408
     30 H10        -2.1499    0.9566   -1.3668 H         1 <0>         0.0503
     31 H11        -1.5974   -0.5522   -2.1325 H         1 <0>         0.0661
     32 H12        -3.4984   -2.0491   -0.2696 H         1 <0>         0.3827
     33 H13        -5.0516   -6.1492    0.8538 H         1 <0>         0.0624
     34 H14        -3.7762   -5.7836    2.0441 H         1 <0>         0.0950
     35 H15        -6.0622   -6.0058    3.0820 H         1 <0>         0.0783
     36 H16        -5.3267   -4.4058    3.3458 H         1 <0>         0.0668
     37 H17        -7.3350   -5.0883    1.1503 H         1 <0>         0.0722
     38 H18        -7.7107   -4.2145    2.6545 H         1 <0>         0.0712
     39 H19        -5.0410   -2.4633   -0.1885 H         1 <0>         0.0786
     40 H20        -5.8773   -3.9817   -0.6037 H         1 <0>         0.0722
     41 H21        -6.6501   -0.8461   -0.0642 H         1 <0>         0.4029
     42 H22        -8.2886   -0.8323   -0.4354 H         1 <0>         0.4014
@<TRIPOS>BOND
     1    1    2 1
     2    1   24 1
     3    1   25 1
     4    1   26 1
     5    2    3 1
     6    2   27 1
     7    2   28 1
     8    3    4 1
     9    3    5 1
    10    3    6 1
    11    5   29 1
    12    5   30 1
    13    5   31 1
    14    6    7 1
    15    6    8 1
    16    6   11 1
    17    8    9 2
    18    8   10 1
    19   11   12 am
    20   11   32 1
    21   12   13 2
    22   12   14 am
    23   14   20 1
    24   14   15 1
    25   15   16 1
    26   15   33 1
    27   15   34 1
    28   16   17 1
    29   16   35 1
    30   16   36 1
    31   17   18 1
    32   17   37 1
    33   17   38 1
    34   18   19 1
    35   18   20 1
    36   18   21 1
    37   20   39 1
    38   20   40 1
    39   21   22 2
    40   21   23 am
    41   23   41 1
    42   23   42 1
@<TRIPOS>MOLECULE
ZINC41032959
   35    36     0     0     0
SMALL
USER_CHARGES

@<TRIPOS>ATOM
      1 C1         -0.0536    1.3106    0.0149 C.ar      1 <0>        -0.0020
      2 C2          1.0831    2.0927   -0.0104 C.ar      1 <0>        -0.1613
      3 C3          2.3376    1.4965   -0.0310 C.ar      1 <0>         0.3551
      4 C4          2.4414    0.0966   -0.0259 C.ar      1 <0>        -0.2546
      5 C5          1.2812   -0.6810   -0.0002 C.ar      1 <0>         0.0336
      6 C6          0.0455   -0.0715    0.0199 C.ar      1 <0>        -0.1386
      7 N1         -1.1824   -0.8975    0.0470 N.pl3     1 <0>         0.0590
      8 O1         -2.2682   -0.3661    0.0648 O.2       1 <0>        -0.1860
      9 O2         -1.0996   -2.1037    0.0515 O.3       1 <0>        -0.1976
     10 C7          3.7667   -0.5491   -0.0481 C.2       1 <0>         0.5870
     11 O3          4.7739    0.1270    0.0366 O.2       1 <0>        -0.5520
     12 N2          3.8619   -1.8886   -0.1622 N.am      1 <0>        -0.8505
     13 N3          3.4831    2.2814   -0.0569 N.pl3     1 <0>        -0.6525
     14 C8          3.3712    3.7369   -0.1797 C.3       1 <0>         0.0776
     15 C9          2.6284    4.3147    1.0427 C.3       1 <0>        -0.1260
     16 C10         3.7616    4.7542    2.0029 C.3       1 <0>        -0.1215
     17 C11         4.8309    5.3178    1.0343 C.3       1 <0>        -0.1176
     18 C12         4.7715    4.3747   -0.1850 C.3       1 <0>        -0.1059
     19 C13         2.6370    4.0928   -1.4467 C.2       1 <0>         0.4934
     20 O4          2.2497    3.2114   -2.1949 O.co2     1 <0>        -0.6720
     21 O5          2.4303    5.2620   -1.7236 O.co2     1 <0>        -0.6805
     22 H1         -1.0267    1.7788    0.0353 H         1 <0>         0.1470
     23 H2          0.9972    3.1693   -0.0145 H         1 <0>         0.1517
     24 H3          1.3525   -1.7586    0.0035 H         1 <0>         0.1438
     25 H4          3.0585   -2.4279   -0.2297 H         1 <0>         0.4020
     26 H5          4.7338   -2.3134   -0.1767 H         1 <0>         0.4044
     27 H6          4.3573    1.8658    0.0063 H         1 <0>         0.4155
     28 H7          2.0221    5.1721    0.7505 H         1 <0>         0.0861
     29 H8          2.0085    3.5492    1.5094 H         1 <0>         0.0668
     30 H9          3.4113    5.5291    2.6848 H         1 <0>         0.0643
     31 H10         4.1528    3.9000    2.5554 H         1 <0>         0.0607
     32 H11         4.5802    6.3372    0.7407 H         1 <0>         0.0706
     33 H12         5.8183    5.2843    1.4948 H         1 <0>         0.0608
     34 H13         5.5344    3.6012   -0.0963 H         1 <0>         0.0609
     35 H14         4.9197    4.9423   -1.1037 H         1 <0>         0.0780
@<TRIPOS>BOND
     1    1    6 ar
     2    1    2 ar
     3    1   22 1
     4    2    3 ar
     5    2   23 1
     6    3    4 ar
     7    3   13 1
     8    4    5 ar
     9    4   10 1
    10    5    6 ar
    11    5   24 1
    12    6    7 1
    13    7    8 2
    14    7    9 1
    15   10   11 2
    16   10   12 am
    17   12   25 1
    18   12   26 1
    19   13   14 1
    20   13   27 1
    21   14   18 1
    22   14   15 1
    23   14   19 1
    24   15   16 1
    25   15   28 1
    26   15   29 1
    27   16   17 1
    28   16   30 1
    29   16   31 1
    30   17   18 1
    31   17   32 1
    32   17   33 1
    33   18   34 1
    34   18   35 1
    35   19   20 2
    36   19   21 1
@<TRIPOS>MOLECULE
ZINC44884562
   28    29     0     0     0
SMALL
USER_CHARGES

@<TRIPOS>ATOM
      1 C1         -0.0211    1.5809    0.0484 C.3       1 <0>        -0.1482
      2 C2          0.0190    0.0518    0.0161 C.3       1 <0>         0.2589
      3 H1         -0.9988   -0.3383    0.0097 H         1 <0>         0.0956
      4 C3          0.7401   -0.4057   -1.2256 C.2       1 <0>         0.0395
      5 N1          0.1888   -0.9204   -2.3151 N.2       1 <0>        -0.3759
      6 N2          1.1390   -1.1815   -3.1466 N.2       1 <0>        -0.1927
      7 N3          2.2639   -0.8486   -2.6159 N.2       1 <0>        -0.1923
      8 N4          2.0470   -0.3654   -1.4403 N.2       1 <0>        -0.3810
      9 N5          0.7243   -0.4434    1.2008 N.am      1 <0>        -0.7001
     10 C4          0.0576   -0.6142    2.3596 C.2       1 <0>         0.5715
     11 O1         -1.1294   -0.3572    2.4218 O.2       1 <0>        -0.5579
     12 C5          0.7674   -1.1125    3.5519 C.ar      1 <0>        -0.1982
     13 C6          2.0989   -1.5261    3.4556 C.ar      1 <0>        -0.0638
     14 C7          2.7572   -1.9908    4.5750 C.ar      1 <0>         0.0223
     15 C8          2.1034   -2.0498    5.7978 C.ar      1 <0>        -0.0750
     16 C9          0.7890   -1.6451    5.9069 C.ar      1 <0>        -0.1894
     17 C10         0.1119   -1.1688    4.7912 C.ar      1 <0>         0.2725
     18 N6         -1.2105   -0.7553    4.9009 N.pl3     1 <0>        -0.8530
     19 F1          4.0442   -2.3908    4.4807 F         1 <0>        -0.1440
     20 H2          0.9967    1.9710    0.0548 H         1 <0>         0.0591
     21 H3         -0.5459    1.9493   -0.8331 H         1 <0>         0.0641
     22 H4         -0.5427    1.9118    0.9465 H         1 <0>         0.0575
     23 H5          1.6711   -0.6484    1.1512 H         1 <0>         0.4069
     24 H6          2.6115   -1.4823    2.5059 H         1 <0>         0.1402
     25 H7          2.6267   -2.4150    6.6691 H         1 <0>         0.1362
     26 H8          0.2871   -1.6943    6.8619 H         1 <0>         0.1349
     27 H9         -1.7070   -0.5022    4.1070 H         1 <0>         0.4200
     28 H10        -1.6370   -0.7198    5.7714 H         1 <0>         0.3922
@<TRIPOS>BOND
     1    1    2 1
     2    1   20 1
     3    1   21 1
     4    1   22 1
     5    2    3 1
     6    2    4 1
     7    2    9 1
     8    4    5 1
     9    4    8 2
    10    5    6 1
    11    6    7 2
    12    7    8 1
    13    9   10 am
    14    9   23 1
    15   10   11 2
    16   10   12 1
    17   12   17 ar
    18   12   13 ar
    19   13   14 ar
    20   13   24 1
    21   14   15 ar
    22   14   19 1
    23   15   16 ar
    24   15   25 1
    25   16   17 ar
    26   16   26 1
    27   17   18 1
    28   18   27 1
    29   18   28 1
@<TRIPOS>MOLECULE
ZINC54431926
   30    30     0     0     0
SMALL
USER_CHARGES

@<TRIPOS>ATOM
      1 C1         -0.0187    1.5258    0.0104 C.3       1 <0>        -0.1331
      2 C2          0.0021   -0.0041    0.0020 C.3       1 <0>        -0.0640
      3 C3          0.7421   -0.5109    1.2415 C.3       1 <0>        -0.1395
      4 C4         -1.4333   -0.5336    0.0129 C.3       1 <0>        -0.1390
      5 C5          0.7182   -0.4975   -1.2568 C.3       1 <0>         0.0800
      6 H1          0.1910   -0.1364   -2.1398 H         1 <0>         0.0873
      7 C6          2.1320    0.0241   -1.2675 C.2       1 <0>         0.4979
      8 O1          3.0254   -0.6256   -0.7515 O.co2     1 <0>        -0.6853
      9 O2          2.3824    1.0959   -1.7921 O.co2     1 <0>        -0.6861
     10 N1          0.7381   -1.9623   -1.2648 N.am      1 <0>        -0.6601
     11 C7          0.8378   -2.6285   -2.4322 C.2       1 <0>         0.5811
     12 O3          0.9113   -2.0141   -3.4780 O.2       1 <0>        -0.5232
     13 C8          0.8579   -4.1096   -2.4403 C.2       1 <0>         0.0407
     14 C9          0.9677   -4.9614   -3.6300 C.2       1 <0>         0.3664
     15 N2          0.9521   -6.2083   -3.2444 N.2       1 <0>        -0.3662
     16 O4          0.8353   -6.2267   -1.8328 O.3       1 <0>         0.0291
     17 N3          0.7865   -4.8826   -1.3881 N.2       1 <0>        -0.2298
     18 N4          1.0706   -4.5172   -4.9411 N.pl3     1 <0>        -0.8018
     19 H2          1.0039    1.9031    0.0027 H         1 <0>         0.0729
     20 H3         -0.5459    1.8868   -0.8726 H         1 <0>         0.0528
     21 H4         -0.5289    1.8773    0.9072 H         1 <0>         0.0479
     22 H5          0.2319   -0.1594    2.1383 H         1 <0>         0.0480
     23 H6          0.7568   -1.6008    1.2356 H         1 <0>         0.0463
     24 H7          1.7647   -0.1336    1.2338 H         1 <0>         0.0744
     25 H8         -1.9605   -0.1726   -0.8702 H         1 <0>         0.0527
     26 H9         -1.4185   -1.6235    0.0069 H         1 <0>         0.0493
     27 H10        -1.9435   -0.1821    0.9097 H         1 <0>         0.0538
     28 H11         0.6794   -2.4528   -0.4300 H         1 <0>         0.4019
     29 H12         1.0740   -3.5662   -5.1321 H         1 <0>         0.4318
     30 H13         1.1392   -5.1578   -5.6662 H         1 <0>         0.4138
@<TRIPOS>BOND
     1    1    2 1
     2    1   19 1
     3    1   20 1
     4    1   21 1
     5    2    3 1
     6    2    4 1
     7    2    5 1
     8    3   22 1
     9    3   23 1
    10    3   24 1
    11    4   25 1
    12    4   26 1
    13    4   27 1
    14    5    6 1
    15    5    7 1
    16    5   10 1
    17    7    8 2
    18    7    9 1
    19   10   11 am
    20   10   28 1
    21   11   12 2
    22   11   13 1
    23   13   17 2
    24   13   14 1
    25   14   15 2
    26   14   18 1
    27   15   16 1
    28   16   17 1
    29   18   29 1
    30   18   30 1
@<TRIPOS>MOLECULE
ZINC13202408
   47    50     0     0     0
SMALL
USER_CHARGES
2-[(2-chloro-7-methyl-3-quinolyl)methylsulfanyl]-3-ethyl-4-oxo-quinazoline-7-carboxylic acid
@<TRIPOS>ATOM
      1 C1          6.4992   -0.3608   -4.3927 C.3       1 <0>        -0.1691
      2 C2          6.0364   -1.7395   -3.9174 C.3       1 <0>         0.0885
      3 N1          6.5512   -1.9893   -2.5687 N.am      1 <0>        -0.5304
      4 C3          7.7569   -2.5823   -2.4099 C.2       1 <0>         0.5575
      5 O1          8.4277   -2.9145   -3.3695 O.2       1 <0>        -0.5154
      6 C4          8.2254   -2.8156   -1.0345 C.ar      1 <0>        -0.1957
      7 C5          9.4519   -3.4253   -0.7722 C.ar      1 <0>        -0.0636
      8 C6          9.8504   -3.6243    0.5184 C.ar      1 <0>        -0.0863
      9 C7          9.0378   -3.2214    1.5861 C.ar      1 <0>        -0.0668
     10 C8          7.8122   -2.6122    1.3479 C.ar      1 <0>        -0.0720
     11 C9          7.3936   -2.4031    0.0307 C.ar      1 <0>         0.1385
     12 N2          6.2071   -1.8138   -0.2484 N.2       1 <0>        -0.5089
     13 C10         5.8125   -1.6172   -1.4822 C.2       1 <0>         0.3507
     14 S1          4.2527   -0.8432   -1.7519 S.3       1 <0>        -0.0082
     15 C11         3.7296   -0.5848   -0.0386 C.3       1 <0>        -0.0676
     16 C12         2.3797    0.0849   -0.0211 C.ar      1 <0>        -0.1224
     17 C13         1.2421   -0.6703   -0.0139 C.ar      1 <0>        -0.0174
     18 C14         0.0021   -0.0041    0.0020 C.ar      1 <0>        -0.1078
     19 C15        -1.2091   -0.7145    0.0107 C.ar      1 <0>        -0.0842
     20 C16        -2.3882   -0.0339    0.0265 C.ar      1 <0>        -0.1129
     21 C17        -2.4096    1.3594    0.0337 C.ar      1 <0>        -0.0591
     22 C18        -1.2548    2.0793    0.0311 C.ar      1 <0>        -0.0975
     23 C19        -0.0171    1.4127    0.0098 C.ar      1 <0>         0.1508
     24 N3          1.1331    2.0939    0.0025 N.ar      1 <0>        -0.4653
     25 C20         2.2909    1.4767   -0.0128 C.ar      1 <0>         0.2239
     26 Cl1         3.7502    2.4170   -0.0222 Cl        1 <0>        -0.0109
     27 C21        -3.7327    2.0805    0.0513 C.3       1 <0>        -0.1191
     28 C22         9.4878   -3.4467    2.9774 C.2       1 <0>         0.4879
     29 O2          8.7866   -3.0995    3.9061 O.co2     1 <0>        -0.6209
     30 H1          6.1225    0.4032   -3.7127 H         1 <0>         0.0665
     31 H2          7.5886   -0.3286   -4.4079 H         1 <0>         0.0638
     32 H3          6.1162   -0.1750   -5.3961 H         1 <0>         0.0772
     33 H4          6.4131   -2.5036   -4.5973 H         1 <0>         0.1017
     34 H5          4.9470   -1.7718   -3.9022 H         1 <0>         0.0939
     35 H6         10.0854   -3.7394   -1.5885 H         1 <0>         0.1336
     36 H7         10.8011   -4.0964    0.7180 H         1 <0>         0.1432
     37 H8          7.1881   -2.3032    2.1733 H         1 <0>         0.1449
     38 H9          4.4558    0.0481    0.4715 H         1 <0>         0.1217
     39 H10         3.6647   -1.5464    0.4705 H         1 <0>         0.1203
     40 H11         1.2923   -1.7491   -0.0198 H         1 <0>         0.1557
     41 H12        -1.2054   -1.7944    0.0052 H         1 <0>         0.1367
     42 H13        -3.3193   -0.5812    0.0332 H         1 <0>         0.1313
     43 H14        -1.2890    3.1587    0.0373 H         1 <0>         0.1387
     44 H15        -4.0409    2.2492    1.0831 H         1 <0>         0.0764
     45 H16        -3.6312    3.0384   -0.4588 H         1 <0>         0.0711
     46 H17        -4.4830    1.4754   -0.4578 H         1 <0>         0.0710
     47 O3         10.6752   -4.0369    3.2139 O.co2     1 <0>        -0.7440
@<TRIPOS>BOND
     1    1    2 1
     2    1   30 1
     3    1   31 1
     4    1   32 1
     5    2    3 1
     6    2   33 1
     7    2   34 1
     8    3   13 1
     9    3    4 am
    10    4    5 2
    11    4    6 1
    12    6   11 ar
    13    6    7 ar
    14    7    8 ar
    15    7   35 1
    16    8    9 ar
    17    8   36 1
    18    9   10 ar
    19    9   28 1
    20   10   11 ar
    21   10   37 1
    22   11   12 1
    23   12   13 2
    24   13   14 1
    25   14   15 1
    26   15   16 1
    27   15   38 1
    28   15   39 1
    29   16   25 ar
    30   16   17 ar
    31   17   18 ar
    32   17   40 1
    33   18   23 ar
    34   18   19 ar
    35   19   20 ar
    36   19   41 1
    37   20   21 ar
    38   20   42 1
    39   21   22 ar
    40   21   27 1
    41   22   23 ar
    42   22   43 1
    43   23   24 ar
    44   24   25 ar
    45   25   26 1
    46   27   44 1
    47   27   45 1
    48   27   46 1
    49   28   29 2
    50   28   47 1
@<TRIPOS>MOLECULE
ZINC09339599
   48    51     0     0     0
SMALL
USER_CHARGES
(5S)-5-(3,4-dichlorophenyl)-1-(4,5-dimethylthiazol-2-yl)-3-hydroxy-4-(4-methylbenzoyl)-5H-pyrrol-2-one
@<TRIPOS>ATOM
      1 C1         -4.6693   -3.1213   -2.8803 C.3       1 <0>        -0.1161
      2 C2         -3.9369   -1.8317   -2.6129 C.ar      1 <0>        -0.0728
      3 C3         -4.5090   -0.6259   -2.9790 C.ar      1 <0>        -0.1364
      4 C4         -3.8443    0.5581   -2.7368 C.ar      1 <0>        -0.0683
      5 C5         -2.5911    0.5382   -2.1210 C.ar      1 <0>        -0.1448
      6 C6         -2.0171   -0.6824   -1.7593 C.ar      1 <0>        -0.0624
      7 C7         -2.6955   -1.8586   -2.0018 C.ar      1 <0>        -0.1377
      8 C8         -1.8724    1.8036   -1.8586 C.2       1 <0>         0.5038
      9 O1         -2.3238    2.8561   -2.2694 O.2       1 <0>        -0.4656
     10 C9         -0.6166    1.7899   -1.1037 C.2       1 <0>        -0.4864
     11 C10         0.6054    2.1528   -1.5617 C.2       1 <0>         0.2746
     12 C11         1.5975    1.9880   -0.4798 C.2       1 <0>         0.5114
     13 O2          2.7839    2.2317   -0.5787 O.2       1 <0>        -0.4875
     14 N1          0.9938    1.5290    0.6314 N.am      1 <0>        -0.5058
     15 C12        -0.4345    1.3675    0.3355 C.3       1 <0>         0.2696
     16 H1         -0.7383    0.3237    0.5036 H         1 <0>         0.0893
     17 C13        -1.2545    2.2479    1.2430 C.ar      1 <0>        -0.0483
     18 C14        -0.8515    3.5463    1.4949 C.ar      1 <0>        -0.0758
     19 C15        -1.6052    4.3562    2.3232 C.ar      1 <0>        -0.0975
     20 C16        -2.7580    3.8647    2.9091 C.ar      1 <0>        -0.0335
     21 C17        -3.1587    2.5629    2.6610 C.ar      1 <0>        -0.0260
     22 C18        -2.4059    1.7552    1.8275 C.ar      1 <0>        -0.0805
     23 Cl1        -4.6047    1.9443    3.3959 Cl        1 <0>        -0.0591
     24 Cl2        -3.7018    4.8797    3.9544 Cl        1 <0>        -0.0621
     25 C19         1.6123    1.2570    1.8436 C.2       1 <0>         0.3338
     26 N2          1.0782    0.8140    2.9657 N.2       1 <0>        -0.5428
     27 C20         1.8168    0.6026    4.0367 C.2       1 <0>         0.0861
     28 C21         3.1461    0.8616    3.9665 C.2       1 <0>        -0.2412
     29 S1          3.2866    1.4196    2.2748 S.3       1 <0>         0.0967
     30 C22         4.2107    0.7189    5.0236 C.3       1 <0>        -0.0518
     31 C23         1.1973    0.0906    5.3116 C.3       1 <0>        -0.0773
     32 O3          0.8745    2.5958   -2.8112 O.3       1 <0>        -0.6303
     33 H2         -5.6308   -2.9026   -3.3678 H         1 <0>         0.0634
     34 H3         -4.8507   -3.6439   -1.9295 H         1 <0>         0.0687
     35 H4         -4.0610   -3.7587   -3.5388 H         1 <0>         0.0687
     36 H5         -5.4782   -0.6120   -3.4552 H         1 <0>         0.1211
     37 H6         -4.2922    1.4984   -3.0224 H         1 <0>         0.1293
     38 H7         -1.0464   -0.7050   -1.2864 H         1 <0>         0.1315
     39 H8         -2.2549   -2.8030   -1.7183 H         1 <0>         0.1218
     40 H9          0.0508    3.9289    1.0412 H         1 <0>         0.1278
     41 H10        -1.2918    5.3715    2.5166 H         1 <0>         0.1385
     42 H11        -2.7181    0.7397    1.6332 H         1 <0>         0.1401
     43 H12         5.1829    1.0228    4.6083 H         1 <0>         0.0691
     44 H13         4.2637   -0.3298    5.3514 H         1 <0>         0.0752
     45 H14         3.9626    1.3595    5.8827 H         1 <0>         0.0751
     46 H15         1.9767   -0.0178    6.0802 H         1 <0>         0.0711
     47 H16         0.7283   -0.8867    5.1246 H         1 <0>         0.0715
     48 H17         0.4348    0.8026    5.6604 H         1 <0>         0.0716
@<TRIPOS>BOND
     1    1    2 1
     2    1   33 1
     3    1   34 1
     4    1   35 1
     5    2    7 ar
     6    2    3 ar
     7    3    4 ar
     8    3   36 1
     9    4    5 ar
    10    4   37 1
    11    5    6 ar
    12    5    8 1
    13    6    7 ar
    14    6   38 1
    15    7   39 1
    16    8    9 2
    17    8   10 1
    18   10   15 1
    19   10   11 2
    20   11   12 1
    21   11   32 1
    22   12   13 2
    23   12   14 am
    24   14   15 1
    25   14   25 1
    26   15   16 1
    27   15   17 1
    28   17   22 ar
    29   17   18 ar
    30   18   19 ar
    31   18   40 1
    32   19   20 ar
    33   19   41 1
    34   20   21 ar
    35   20   24 1
    36   21   22 ar
    37   21   23 1
    38   22   42 1
    39   25   29 1
    40   25   26 2
    41   26   27 1
    42   27   28 2
    43   27   31 1
    44   28   29 1
    45   28   30 1
    46   30   43 1
    47   30   44 1
    48   30   45 1
    49   31   46 1
    50   31   47 1
    51   31   48 1
@<TRIPOS>MOLECULE
ZINC35970115
   57    61     0     0     0
SMALL
USER_CHARGES

@<TRIPOS>ATOM
      1 C1          0.0991    1.3021   -0.1602 C.3       1 <0>        -0.0917
      2 C2          0.1220   -0.2041   -0.1145 C.2       1 <0>         0.3005
      3 C3         -1.0642   -0.9057   -0.0161 C.2       1 <0>        -0.3905
      4 C4         -0.9889   -2.4157    0.0258 C.3       1 <0>         0.2592
      5 H1         -1.4619   -2.7497    0.9493 H         1 <0>         0.0733
      6 N1          0.3647   -3.0279   -0.0426 N.pl3     1 <0>        -0.5127
      7 C5          0.6699   -4.3742   -0.0211 C.2       1 <0>         0.2295
      8 C6          1.9734   -4.7228   -0.0948 C.2       1 <0>        -0.2996
      9 S1          2.7746   -3.1346   -0.1955 S.3       1 <0>         0.1452
     10 C7          1.4126   -2.1554   -0.1374 C.2       1 <0>         0.3206
     11 N2          1.2775   -0.8457   -0.1743 N.2       1 <0>        -0.5955
     12 C8         -0.3856   -5.3924    0.0791 C.2       1 <0>        -0.4556
     13 C9         -0.0578   -6.6883    0.2442 C.2       1 <0>         0.5053
     14 O1          1.2348   -7.0392    0.4513 O.3       1 <0>        -0.6976
     15 N3         -1.0414   -7.6619    0.2024 N.pl3     1 <0>        -0.6427
     16 C10        -0.7515   -9.0230   -0.2783 C.3       1 <0>         0.1377
     17 C11        -0.9514   -9.9865    0.8906 C.3       1 <0>        -0.0993
     18 C12        -2.2543   -9.7123    1.5945 C.ar      1 <0>        -0.0607
     19 C13        -2.7891  -10.7274    2.3786 C.ar      1 <0>        -0.1249
     20 C14        -3.9745  -10.5388    3.0578 C.ar      1 <0>        -0.1270
     21 C15        -4.6378   -9.3296    2.9607 C.ar      1 <0>        -0.1278
     22 C16        -4.1110   -8.3213    2.1803 C.ar      1 <0>        -0.1170
     23 C17        -2.9208   -8.5121    1.4914 C.ar      1 <0>        -0.0872
     24 C18        -2.4126   -7.3804    0.6410 C.3       1 <0>         0.1748
     25 C19        -1.7989   -2.9527   -1.1259 C.ar      1 <0>        -0.0705
     26 C20        -1.3100   -2.8634   -2.4158 C.ar      1 <0>        -0.0932
     27 C21        -2.0530   -3.3561   -3.4723 C.ar      1 <0>        -0.1231
     28 C22        -3.2848   -3.9384   -3.2388 C.ar      1 <0>        -0.1216
     29 C23        -3.7733   -4.0286   -1.9488 C.ar      1 <0>        -0.1238
     30 C24        -3.0284   -3.5398   -0.8919 C.ar      1 <0>        -0.0772
     31 C25        -2.2950   -0.2410    0.0432 C.2       1 <0>         0.5347
     32 O2         -2.3323    0.9767    0.0082 O.2       1 <0>        -0.5501
     33 O3         -3.4418   -0.9496    0.1392 O.3       1 <0>        -0.3557
     34 C26        -4.6609   -0.2062    0.1954 C.3       1 <0>         0.0416
     35 H2          1.1186    1.6787   -0.2426 H         1 <0>         0.0641
     36 H3         -0.4804    1.6306   -1.0230 H         1 <0>         0.0861
     37 H4         -0.3576    1.6863    0.7518 H         1 <0>         0.0863
     38 H5          2.4150   -5.7084   -0.0926 H         1 <0>         0.2327
     39 H6         -1.4240   -5.1013    0.0203 H         1 <0>         0.0962
     40 H7         -1.4327   -9.2807   -1.0892 H         1 <0>         0.0491
     41 H8          0.2789   -9.0783   -0.6297 H         1 <0>         0.0857
     42 H9         -0.9552  -11.0098    0.5151 H         1 <0>         0.0713
     43 H10        -0.1302   -9.8678    1.5975 H         1 <0>         0.0803
     44 H11        -2.2722  -11.6724    2.4565 H         1 <0>         0.1170
     45 H12        -4.3837  -11.3337    3.6637 H         1 <0>         0.1166
     46 H13        -5.5646   -9.1751    3.4932 H         1 <0>         0.1180
     47 H14        -4.6285   -7.3764    2.1044 H         1 <0>         0.1202
     48 H15        -2.4256   -6.4576    1.2209 H         1 <0>         0.0838
     49 H16        -3.0567   -7.2691   -0.2312 H         1 <0>         0.0591
     50 H17        -0.3476   -2.4084   -2.5982 H         1 <0>         0.1035
     51 H18        -1.6713   -3.2856   -4.4801 H         1 <0>         0.1138
     52 H19        -3.8656   -4.3227   -4.0643 H         1 <0>         0.1139
     53 H20        -4.7358   -4.4832   -1.7664 H         1 <0>         0.1159
     54 H21        -3.4084   -3.6135    0.1163 H         1 <0>         0.1173
     55 H22        -5.5029   -0.8944    0.2710 H         1 <0>         0.0895
     56 H23        -4.6474    0.4486    1.0667 H         1 <0>         0.0510
     57 H24        -4.7624    0.3941   -0.7087 H         1 <0>         0.0510
@<TRIPOS>BOND
     1    1    2 1
     2    1   35 1
     3    1   36 1
     4    1   37 1
     5    2   11 1
     6    2    3 2
     7    3    4 1
     8    3   31 1
     9    4    5 1
    10    4    6 1
    11    4   25 1
    12    6   10 1
    13    6    7 1
    14    7    8 2
    15    7   12 1
    16    8    9 1
    17    8   38 1
    18    9   10 1
    19   10   11 2
    20   12   13 2
    21   12   39 1
    22   13   14 1
    23   13   15 1
    24   15   24 1
    25   15   16 1
    26   16   17 1
    27   16   40 1
    28   16   41 1
    29   17   18 1
    30   17   42 1
    31   17   43 1
    32   18   23 ar
    33   18   19 ar
    34   19   20 ar
    35   19   44 1
    36   20   21 ar
    37   20   45 1
    38   21   22 ar
    39   21   46 1
    40   22   23 ar
    41   22   47 1
    42   23   24 1
    43   24   48 1
    44   24   49 1
    45   25   30 ar
    46   25   26 ar
    47   26   27 ar
    48   26   50 1
    49   27   28 ar
    50   27   51 1
    51   28   29 ar
    52   28   52 1
    53   29   30 ar
    54   29   53 1
    55   30   54 1
    56   31   32 2
    57   31   33 1
    58   33   34 1
    59   34   55 1
    60   34   56 1
    61   34   57 1
@<TRIPOS>MOLECULE
ZINC40475320
   48    50     0     0     0
SMALL
USER_CHARGES

@<TRIPOS>ATOM
      1 C1          0.0409    2.0070   -0.2616 C.3       1 <0>        -0.1393
      2 C2         -0.1252    0.4862   -0.2854 C.3       1 <0>        -0.0288
      3 C3          0.4576   -0.1107    0.9971 C.3       1 <0>        -0.1373
      4 C4         -1.6117    0.1369   -0.3809 C.3       1 <0>        -0.1433
      5 C5          0.6015   -0.0798   -1.4782 C.ar      1 <0>        -0.0684
      6 C6         -0.0958   -0.7834   -2.4424 C.ar      1 <0>        -0.1196
      7 C7          0.5707   -1.3026   -3.5365 C.ar      1 <0>        -0.1022
      8 C8          1.9344   -1.1178   -3.6667 C.ar      1 <0>        -0.0779
      9 C9          2.6316   -0.4134   -2.7030 C.ar      1 <0>        -0.0883
     10 C10         1.9643    0.1094   -1.6110 C.ar      1 <0>        -0.1114
     11 C11         2.6612   -1.6847   -4.8589 C.3       1 <0>         0.1024
     12 H1          1.9403   -2.1995   -5.4941 H         1 <0>         0.1071
     13 C12         3.2583   -0.5655   -5.6279 C.2       1 <0>        -0.2405
     14 C13         4.5558   -0.1363   -5.6585 C.2       1 <0>         0.0774
     15 N1          4.8282    0.9153   -6.4355 N.2       1 <0>        -0.5481
     16 C14         3.9048    1.5218   -7.1562 C.2       1 <0>         0.3519
     17 S1          4.0588    2.9073   -8.2339 S.3       1 <0>        -0.6873
     18 S2          2.4545    0.5596   -6.7454 S.3       1 <0>        -0.0557
     19 S3          5.7883   -0.9806   -4.6920 S.3       1 <0>         0.1432
     20 C15         4.9895   -2.4882   -4.2653 C.2       1 <0>        -0.1362
     21 C16         3.6678   -2.6748   -4.3787 C.2       1 <0>        -0.0371
     22 C17         3.1763   -3.9480   -4.0024 C.2       1 <0>         0.5292
     23 O1          3.0000   -4.8059   -4.8470 O.2       1 <0>        -0.4982
     24 O2          2.9033   -4.2102   -2.7068 O.3       1 <0>        -0.3325
     25 C18         2.4103   -5.5156   -2.3990 C.3       1 <0>         0.0401
     26 C19         5.8190   -3.6050   -3.7556 C.2       1 <0>         0.5229
     27 O3          5.2891   -4.6213   -3.3556 O.2       1 <0>        -0.4762
     28 O4          7.1610   -3.4926   -3.7360 O.3       1 <0>        -0.3298
     29 C20         7.8981   -4.6080   -3.2314 C.3       1 <0>         0.0335
     30 H2          1.0999    2.2558   -0.1936 H         1 <0>         0.0578
     31 H3         -0.3743    2.4322   -1.1753 H         1 <0>         0.0577
     32 H4         -0.4847    2.4164    0.6011 H         1 <0>         0.0559
     33 H5         -0.0679    0.2987    1.8599 H         1 <0>         0.0556
     34 H6          0.3393   -1.1941    0.9802 H         1 <0>         0.0558
     35 H7          1.5167    0.1382    1.0652 H         1 <0>         0.0573
     36 H8         -2.0269    0.5621   -1.2947 H         1 <0>         0.0592
     37 H9         -1.7300   -0.9465   -0.3979 H         1 <0>         0.0579
     38 H10        -2.1372    0.5463    0.4818 H         1 <0>         0.0556
     39 H11        -1.1613   -0.9278   -2.3407 H         1 <0>         0.1256
     40 H12         0.0260   -1.8529   -4.2894 H         1 <0>         0.1200
     41 H13         3.6971   -0.2694   -2.8045 H         1 <0>         0.1207
     42 H14         2.5084    0.6629   -0.8600 H         1 <0>         0.1206
     43 H15         1.4772   -5.6875   -2.9355 H         1 <0>         0.0557
     44 H16         3.1454   -6.2620   -2.7003 H         1 <0>         0.0613
     45 H17         2.2323   -5.5932   -1.3264 H         1 <0>         0.0968
     46 H18         7.6868   -5.4880   -3.8389 H         1 <0>         0.0638
     47 H19         8.9647   -4.3867   -3.2711 H         1 <0>         0.1088
     48 H20         7.6052   -4.8002   -2.1992 H         1 <0>         0.0643
@<TRIPOS>BOND
     1    1    2 1
     2    1   30 1
     3    1   31 1
     4    1   32 1
     5    2    3 1
     6    2    4 1
     7    2    5 1
     8    3   33 1
     9    3   34 1
    10    3   35 1
    11    4   36 1
    12    4   37 1
    13    4   38 1
    14    5   10 ar
    15    5    6 ar
    16    6    7 ar
    17    6   39 1
    18    7    8 ar
    19    7   40 1
    20    8    9 ar
    21    8   11 1
    22    9   10 ar
    23    9   41 1
    24   10   42 1
    25   11   12 1
    26   11   21 1
    27   11   13 1
    28   13   18 1
    29   13   14 2
    30   14   15 1
    31   14   19 1
    32   15   16 2
    33   16   17 1
    34   16   18 1
    35   19   20 1
    36   20   21 2
    37   20   26 1
    38   21   22 1
    39   22   23 2
    40   22   24 1
    41   24   25 1
    42   25   43 1
    43   25   44 1
    44   25   45 1
    45   26   27 2
    46   26   28 1
    47   28   29 1
    48   29   46 1
    49   29   47 1
    50   29   48 1
@<TRIPOS>MOLECULE
ZINC35669351
   41    43     0     0     0
SMALL
USER_CHARGES

@<TRIPOS>ATOM
      1 C1         -0.8476    1.3507    0.0572 C.3       1 <0>         0.0746
      2 N1         -0.4750   -0.0658    0.0284 N.am      1 <0>        -0.5416
      3 C2         -0.4542   -0.7134   -1.1243 C.2       1 <0>         0.5512
      4 O1         -0.7386   -0.1599   -2.1704 O.2       1 <0>        -0.4862
      5 C3         -0.0700   -2.1372   -1.0846 C.2       1 <0>        -0.2119
      6 C4          0.0343   -3.0302   -2.1018 C.2       1 <0>         0.0550
      7 C5         -0.0891   -2.5764   -3.4928 C.ar      1 <0>        -0.1169
      8 C6          0.4931   -1.3666   -3.8916 C.ar      1 <0>         0.0113
      9 C7          0.3749   -0.9458   -5.1971 C.ar      1 <0>        -0.2104
     10 C8         -0.3212   -1.7187   -6.1191 C.ar      1 <0>         0.1735
     11 C9         -0.9015   -2.9209   -5.7291 C.ar      1 <0>        -0.1381
     12 C10        -0.7844   -3.3543   -4.4267 C.ar      1 <0>        -0.0203
     13 Br1        -1.8472   -3.9655   -6.9902 Br        1 <0>        -0.0365
     14 O2         -0.4354   -1.2983   -7.4052 O.3       1 <0>        -0.3017
     15 C11         0.1840   -0.0543   -7.7384 C.3       1 <0>         0.0236
     16 S1          0.2217   -2.3696    0.6631 S.3       1 <0>        -0.0245
     17 C12        -0.1448   -0.7068    1.2002 C.2       1 <0>         0.3758
     18 N2         -0.1098   -0.2141    2.4214 N.2       1 <0>        -0.4336
     19 C13         0.2446   -1.0107    3.4669 C.ar      1 <0>         0.0621
     20 C14        -0.2881   -2.3022    3.5755 C.ar      1 <0>        -0.1511
     21 C15         0.0664   -3.0999    4.6226 C.ar      1 <0>        -0.0703
     22 C16         0.9640   -2.6284    5.5903 C.ar      1 <0>        -0.1176
     23 C17         1.4971   -1.3367    5.4812 C.ar      1 <0>        -0.0777
     24 C18         1.1465   -0.5412    4.4311 C.ar      1 <0>        -0.1012
     25 C19         1.3458   -3.4878    6.7191 C.2       1 <0>         0.5171
     26 O3          0.8800   -4.6156    6.8145 O.co2     1 <0>        -0.6837
     27 O4          2.1297   -3.0760    7.5640 O.co2     1 <0>        -0.6840
     28 H1          0.0446    1.9638   -0.0698 H         1 <0>         0.0722
     29 H2         -1.5493    1.5583   -0.7507 H         1 <0>         0.0875
     30 H3         -1.3155    1.5839    1.0137 H         1 <0>         0.0925
     31 H4          0.2081   -4.0745   -1.8879 H         1 <0>         0.1563
     32 H5          1.0337   -0.7647   -3.1762 H         1 <0>         0.1318
     33 H6          0.8236   -0.0131   -5.5053 H         1 <0>         0.1383
     34 H7         -1.2318   -4.2900   -4.1254 H         1 <0>         0.1449
     35 H8         -0.2480    0.7409   -7.1309 H         1 <0>         0.0599
     36 H9          1.2548   -0.1183   -7.5452 H         1 <0>         0.0595
     37 H10         0.0175    0.1633   -8.7934 H         1 <0>         0.1041
     38 H11        -0.9797   -2.6656    2.8299 H         1 <0>         0.1228
     39 H12        -0.3447   -4.0951    4.7067 H         1 <0>         0.1336
     40 H13         2.1888   -0.9732    6.2267 H         1 <0>         0.1359
     41 H14         1.5606    0.4525    4.3446 H         1 <0>         0.1238
@<TRIPOS>BOND
     1    1    2 1
     2    1   28 1
     3    1   29 1
     4    1   30 1
     5    2   17 1
     6    2    3 am
     7    3    4 2
     8    3    5 1
     9    5    6 2
    10    5   16 1
    11    6    7 1
    12    6   31 1
    13    7   12 ar
    14    7    8 ar
    15    8    9 ar
    16    8   32 1
    17    9   10 ar
    18    9   33 1
    19   10   11 ar
    20   10   14 1
    21   11   12 ar
    22   11   13 1
    23   12   34 1
    24   14   15 1
    25   15   35 1
    26   15   36 1
    27   15   37 1
    28   16   17 1
    29   17   18 2
    30   18   19 1
    31   19   24 ar
    32   19   20 ar
    33   20   21 ar
    34   20   38 1
    35   21   22 ar
    36   21   39 1
    37   22   23 ar
    38   22   25 1
    39   23   24 ar
    40   23   40 1
    41   24   41 1
    42   25   26 2
    43   25   27 1
@<TRIPOS>MOLECULE
ZINC04933794
   82    86     0     0     0
SMALL
USER_CHARGES
[4-(acetoxy-trimethyl-BLAHyl)-2-methyl-butyl] acetate
@<TRIPOS>ATOM
      1 C1          1.4847   11.0623    1.6943 C.3       1 <0>        -0.0865
      2 C2          0.9957   10.1362    2.7779 C.2       1 <0>        -0.1851
      3 C3          0.7031   10.4443    4.0548 C.2       1 <0>         0.0286
      4 O1          0.3191    9.3204    4.7728 O.3       1 <0>        -0.2934
      5 C4          1.0571    8.2958    4.1752 C.3       1 <0>         0.0530
      6 H1          2.1205    8.4600    4.3493 H         1 <0>         0.0669
      7 C5          0.7722    8.6857    2.7098 C.3       1 <0>        -0.1012
      8 H2         -0.2904    8.5390    2.5164 H         1 <0>         0.0781
      9 C6          1.5838    7.6702    1.9339 C.3       1 <0>        -0.0240
     10 C7          1.0080    7.5182    0.5418 C.3       1 <0>        -0.1042
     11 C8          1.1053    6.0967    0.0084 C.3       1 <0>        -0.1115
     12 C9          0.3384    5.1801    0.9714 C.3       1 <0>        -0.0650
     13 H3         -0.6568    5.5790    1.1682 H         1 <0>         0.0750
     14 C10         1.1382    5.1092    2.2698 C.3       1 <0>        -0.0644
     15 H4          2.0521    4.5518    2.0645 H         1 <0>         0.0690
     16 C11         1.5298    6.4360    2.8066 C.3       1 <0>        -0.0672
     17 H5          2.5611    6.3111    3.1368 H         1 <0>         0.0585
     18 C12         0.7754    6.8163    4.1148 C.3       1 <0>        -0.0939
     19 C13         0.3238    4.3033    3.2892 C.3       1 <0>        -0.0826
     20 C14        -0.0562    2.9812    2.6874 C.2       1 <0>        -0.1569
     21 C15        -0.0831    2.7516    1.4130 C.2       1 <0>        -0.1053
     22 C16         0.2305    3.7865    0.3642 C.3       1 <0>        -0.0128
     23 C17         1.5254    3.4004   -0.3472 C.3       1 <0>        -0.0982
     24 C18         1.7083    1.8838   -0.3169 C.3       1 <0>        -0.1139
     25 C19         0.3631    1.1659   -0.4068 C.3       1 <0>         0.0899
     26 H6          0.5295    0.1027   -0.5803 H         1 <0>         0.0856
     27 C20        -0.4075    1.3553    0.9076 C.3       1 <0>        -0.0998
     28 O2         -0.4090    1.7203   -1.5045 O.3       1 <0>        -0.3311
     29 C21        -1.2661    0.8944   -2.1249 C.2       1 <0>         0.4480
     30 O3         -1.3679   -0.2538   -1.7628 O.2       1 <0>        -0.5151
     31 C22        -2.1014    1.3992   -3.2731 C.3       1 <0>        -0.1510
     32 C23        -0.9052    3.8054   -0.6610 C.3       1 <0>        -0.1414
     33 C24         3.0248    8.1742    1.8312 C.3       1 <0>        -0.1451
     34 C25         0.7820   11.8342    4.6319 C.3       1 <0>        -0.0572
     35 C26        -0.5982   12.4915    4.5692 C.3       1 <0>        -0.1079
     36 C27        -0.5182   13.9026    5.1551 C.3       1 <0>        -0.0906
     37 H7         -0.1049   13.8548    6.1626 H         1 <0>         0.0849
     38 C28         0.3837   14.7700    4.2747 C.3       1 <0>        -0.1503
     39 C29        -1.9200   14.5134    5.2073 C.3       1 <0>         0.0705
     40 O4         -1.8613   15.8036    5.8709 O.3       1 <0>        -0.3568
     41 C30        -3.0161   16.4758    5.9994 C.2       1 <0>         0.4582
     42 O5         -4.0418   16.0018    5.5716 O.2       1 <0>        -0.5144
     43 C31        -3.0331   17.8216    6.6773 C.3       1 <0>        -0.1481
     44 H8          1.5776   12.0721    2.0940 H         1 <0>         0.0640
     45 H9          2.4566   10.7222    1.3368 H         1 <0>         0.0705
     46 H10         0.7734   11.0626    0.8683 H         1 <0>         0.0679
     47 H11         1.5447    8.1839   -0.1342 H         1 <0>         0.0618
     48 H12        -0.0409    7.8141    0.5620 H         1 <0>         0.0594
     49 H13         2.1505    5.7908   -0.0385 H         1 <0>         0.0665
     50 H14         0.6597    6.0439   -0.9849 H         1 <0>         0.0672
     51 H15        -0.2933    6.6219    4.0243 H         1 <0>         0.0813
     52 H16         1.1959    6.2988    4.9770 H         1 <0>         0.0798
     53 H17        -0.5782    4.8557    3.5526 H         1 <0>         0.0766
     54 H18         0.9230    4.1368    4.1844 H         1 <0>         0.0719
     55 H19        -0.3226    2.1755    3.3555 H         1 <0>         0.1025
     56 H20         2.3686    3.8764    0.1533 H         1 <0>         0.0662
     57 H21         1.4839    3.7389   -1.3825 H         1 <0>         0.0704
     58 H22         2.2028    1.6017    0.6126 H         1 <0>         0.0816
     59 H23         2.3317    1.5818   -1.1585 H         1 <0>         0.0690
     60 H24        -1.4786    1.2642    0.7275 H         1 <0>         0.0790
     61 H25        -0.0872    0.6116    1.6373 H         1 <0>         0.0853
     62 H26        -1.4475    1.7487   -4.0721 H         1 <0>         0.0995
     63 H27        -2.7317    0.5921   -3.6464 H         1 <0>         0.0992
     64 H28        -2.7293    2.2221   -2.9314 H         1 <0>         0.0990
     65 H29        -1.4439    2.8586   -0.6238 H         1 <0>         0.0747
     66 H30        -1.5893    4.6220   -0.4304 H         1 <0>         0.0427
     67 H31        -0.4913    3.9490   -1.6591 H         1 <0>         0.0616
     68 H32         3.0383    9.1327    1.3124 H         1 <0>         0.0649
     69 H33         3.4389    8.2969    2.8320 H         1 <0>         0.0524
     70 H34         3.6236    7.4521    1.2762 H         1 <0>         0.0554
     71 H35         1.1111   11.7786    5.6695 H         1 <0>         0.0805
     72 H36         1.4931   12.4268    4.0564 H         1 <0>         0.0921
     73 H37        -0.9274   12.5471    3.5315 H         1 <0>         0.0708
     74 H38        -1.3094   11.8989    5.1447 H         1 <0>         0.0713
     75 H39        -0.0296   14.8179    3.2672 H         1 <0>         0.0557
     76 H40         0.4407   15.7753    4.6921 H         1 <0>         0.0631
     77 H41         1.3823   14.3349    4.2375 H         1 <0>         0.0608
     78 H42        -2.2977   14.6433    4.1931 H         1 <0>         0.0713
     79 H43        -2.5849   13.8502    5.7605 H         1 <0>         0.0710
     80 H44        -2.3865   18.5105    6.1337 H         1 <0>         0.1003
     81 H45        -4.0513   18.2105    6.6875 H         1 <0>         0.1014
     82 H46        -2.6737   17.7173    7.7011 H         1 <0>         0.1004
@<TRIPOS>BOND
     1    1    2 1
     2    1   44 1
     3    1   45 1
     4    1   46 1
     5    2    7 1
     6    2    3 2
     7    3    4 1
     8    3   34 1
     9    4    5 1
    10    5    6 1
    11    5   18 1
    12    5    7 1
    13    7    8 1
    14    7    9 1
    15    9   16 1
    16    9   10 1
    17    9   33 1
    18   10   11 1
    19   10   47 1
    20   10   48 1
    21   11   12 1
    22   11   49 1
    23   11   50 1
    24   12   13 1
    25   12   22 1
    26   12   14 1
    27   14   15 1
    28   14   16 1
    29   14   19 1
    30   16   17 1
    31   16   18 1
    32   18   51 1
    33   18   52 1
    34   19   20 1
    35   19   53 1
    36   19   54 1
    37   20   21 2
    38   20   55 1
    39   21   27 1
    40   21   22 1
    41   22   23 1
    42   22   32 1
    43   23   24 1
    44   23   56 1
    45   23   57 1
    46   24   25 1
    47   24   58 1
    48   24   59 1
    49   25   26 1
    50   25   27 1
    51   25   28 1
    52   27   60 1
    53   27   61 1
    54   28   29 1
    55   29   30 2
    56   29   31 1
    57   31   62 1
    58   31   63 1
    59   31   64 1
    60   32   65 1
    61   32   66 1
    62   32   67 1
    63   33   68 1
    64   33   69 1
    65   33   70 1
    66   34   35 1
    67   34   71 1
    68   34   72 1
    69   35   36 1
    70   35   73 1
    71   35   74 1
    72   36   37 1
    73   36   38 1
    74   36   39 1
    75   38   75 1
    76   38   76 1
    77   38   77 1
    78   39   40 1
    79   39   78 1
    80   39   79 1
    81   40   41 1
    82   41   42 2
    83   41   43 1
    84   43   80 1
    85   43   81 1
    86   43   82 1
@<TRIPOS>MOLECULE
ZINC16029184
   82    86     0     0     0
SMALL
USER_CHARGES
[[(3R)-4-acetoxy-3-methyl-butyl]-trimethyl-BLAHyl] acetate
@<TRIPOS>ATOM
      1 C1         -1.2922   -1.7446   -0.1340 C.3       1 <0>        -0.0864
      2 C2         -0.1895   -0.7350    0.0566 C.2       1 <0>        -0.1850
      3 C3         -0.3320    0.5888    0.2697 C.2       1 <0>         0.0298
      4 O1          0.8976    1.2181    0.3933 O.3       1 <0>        -0.2954
      5 C4          1.6954    0.2384    0.9947 C.3       1 <0>         0.0503
      6 H1          1.3542    0.0590    2.0129 H         1 <0>         0.0692
      7 C5          1.2687   -0.9520    0.0441 C.3       1 <0>        -0.0985
      8 H2          1.6341   -0.7328   -0.9651 H         1 <0>         0.0872
      9 C6          2.0544   -2.1105    0.6123 C.3       1 <0>        -0.0175
     10 C7          2.2400   -3.1753   -0.4358 C.3       1 <0>        -0.1031
     11 C8          3.6195   -3.7154   -0.6945 C.3       1 <0>        -0.1000
     12 C9          4.7607   -2.7247   -0.5185 C.3       1 <0>        -0.0559
     13 H3          5.6972   -3.3547   -0.4352 H         1 <0>         0.0600
     14 C10         4.6464   -2.0247    0.8127 C.3       1 <0>        -0.0569
     15 H4          4.8115   -2.8200    1.5723 H         1 <0>         0.0580
     16 C11         3.3225   -1.4561    1.1541 C.3       1 <0>        -0.0606
     17 H5          3.2369   -1.5679    2.2420 H         1 <0>         0.0578
     18 C12         3.1976    0.0758    0.9210 C.3       1 <0>        -0.0958
     19 C13         5.7971   -1.0463    1.0347 C.3       1 <0>        -0.0787
     20 C14         5.9591   -0.1547   -0.1591 C.2       1 <0>        -0.1491
     21 C15         5.6281   -0.5129   -1.3590 C.2       1 <0>        -0.0983
     22 C16         5.0029   -1.8354   -1.7099 C.3       1 <0>        -0.0009
     23 C17         5.9524   -2.5343   -2.6992 C.3       1 <0>        -0.1035
     24 C18         6.2392   -1.6415   -3.9012 C.3       1 <0>        -0.1153
     25 C19         6.8588   -0.3132   -3.4832 C.3       1 <0>         0.0962
     26 H6          7.0171    0.3086   -4.3670 H         1 <0>         0.0842
     27 C20         5.9342    0.4289   -2.5120 C.3       1 <0>        -0.1019
     28 O2          8.1401   -0.5532   -2.8393 O.3       1 <0>        -0.3453
     29 C21         9.0815    0.3926   -2.9841 C.2       1 <0>         0.4576
     30 O3          8.8442    1.3878   -3.6269 O.2       1 <0>        -0.5164
     31 C22        10.4345    0.2132   -2.3449 C.3       1 <0>        -0.1485
     32 C23         3.7056   -1.5514   -2.4597 C.3       1 <0>        -0.1522
     33 C24         1.2878   -2.7145    1.7957 C.3       1 <0>        -0.1442
     34 C25        -1.6596    1.2975    0.3519 C.3       1 <0>        -0.0583
     35 C26        -2.0855    1.4143    1.8168 C.3       1 <0>        -0.1080
     36 C27        -3.4332    2.1338    1.9002 C.3       1 <0>        -0.0901
     37 H7         -3.3645    3.0944    1.3896 H         1 <0>         0.0855
     38 C28        -4.5108    1.2772    1.2324 C.3       1 <0>        -0.1504
     39 C29        -3.7998    2.3615    3.3681 C.3       1 <0>         0.0704
     40 O4         -5.0182    3.1473    3.4464 O.3       1 <0>        -0.3561
     41 C30        -5.4787    3.4370    4.6735 C.2       1 <0>         0.4587
     42 O5         -4.8833    3.0470    5.6498 O.2       1 <0>        -0.5152
     43 C31        -6.7383    4.2488    4.8334 C.3       1 <0>        -0.1479
     44 H8         -2.2582   -1.2433   -0.0740 H         1 <0>         0.0638
     45 H9         -1.1878   -2.2165   -1.1110 H         1 <0>         0.0663
     46 H10        -1.2280   -2.5042    0.6451 H         1 <0>         0.0683
     47 H11         1.6125   -4.0351   -0.1201 H         1 <0>         0.0521
     48 H12         1.7813   -2.8410   -1.3682 H         1 <0>         0.0620
     49 H13         3.7940   -4.5738   -0.0147 H         1 <0>         0.0546
     50 H14         3.6583   -4.1504   -1.7091 H         1 <0>         0.0640
     51 H15         3.5703    0.3612   -0.0632 H         1 <0>         0.0865
     52 H16         3.6936    0.6395    1.7089 H         1 <0>         0.0749
     53 H17         6.7225   -1.6091    1.1884 H         1 <0>         0.0736
     54 H18         5.6046   -0.4428    1.9222 H         1 <0>         0.0712
     55 H19         6.3660    0.8369   -0.0086 H         1 <0>         0.1003
     56 H20         6.8870   -2.7665   -2.1844 H         1 <0>         0.0689
     57 H21         5.4918   -3.4663   -3.0352 H         1 <0>         0.0661
     58 H22         5.3413   -1.4709   -4.4899 H         1 <0>         0.0876
     59 H23         6.9605   -2.1627   -4.5534 H         1 <0>         0.0678
     60 H24         5.0181    0.7254   -3.0174 H         1 <0>         0.0894
     61 H25         6.4422    1.3178   -2.1296 H         1 <0>         0.0719
     62 H26        11.1000   -0.2979   -3.0405 H         1 <0>         0.1037
     63 H27        10.8504    1.1892   -2.0948 H         1 <0>         0.1014
     64 H28        10.3315   -0.3814   -1.4372 H         1 <0>         0.0933
     65 H29         3.0387   -0.9689   -1.8241 H         1 <0>         0.0627
     66 H30         3.9260   -0.9890   -3.3670 H         1 <0>         0.0540
     67 H31         3.2250   -2.4934   -2.7239 H         1 <0>         0.0606
     68 H32         0.3245   -3.0904    1.4508 H         1 <0>         0.0607
     69 H33         1.8658   -3.5341    2.2227 H         1 <0>         0.0553
     70 H34         1.1283   -1.9484    2.5544 H         1 <0>         0.0524
     71 H35        -1.5668    2.2939   -0.0801 H         1 <0>         0.0809
     72 H36        -2.4090    0.7304   -0.2003 H         1 <0>         0.0920
     73 H37        -2.1782    0.4179    2.2488 H         1 <0>         0.0701
     74 H38        -1.3361    1.9814    2.3690 H         1 <0>         0.0697
     75 H39        -5.4709    1.7898    1.2918 H         1 <0>         0.0633
     76 H40        -4.2497    1.1150    0.1867 H         1 <0>         0.0615
     77 H41        -4.5795    0.3167    1.7430 H         1 <0>         0.0555
     78 H42        -3.9555    1.3999    3.8571 H         1 <0>         0.0710
     79 H43        -2.9904    2.8955    3.8661 H         1 <0>         0.0707
     80 H44        -7.5991    3.5810    4.8668 H         1 <0>         0.1050
     81 H45        -6.6864    4.8213    5.7595 H         1 <0>         0.1029
     82 H46        -6.8403    4.9312    3.9896 H         1 <0>         0.0943
@<TRIPOS>BOND
     1    1    2 1
     2    1   44 1
     3    1   45 1
     4    1   46 1
     5    2    7 1
     6    2    3 2
     7    3    4 1
     8    3   34 1
     9    4    5 1
    10    5    6 1
    11    5   18 1
    12    5    7 1
    13    7    8 1
    14    7    9 1
    15    9   16 1
    16    9   10 1
    17    9   33 1
    18   10   11 1
    19   10   47 1
    20   10   48 1
    21   11   12 1
    22   11   49 1
    23   11   50 1
    24   12   13 1
    25   12   22 1
    26   12   14 1
    27   14   15 1
    28   14   16 1
    29   14   19 1
    30   16   17 1
    31   16   18 1
    32   18   51 1
    33   18   52 1
    34   19   20 1
    35   19   53 1
    36   19   54 1
    37   20   21 2
    38   20   55 1
    39   21   27 1
    40   21   22 1
    41   22   23 1
    42   22   32 1
    43   23   24 1
    44   23   56 1
    45   23   57 1
    46   24   25 1
    47   24   58 1
    48   24   59 1
    49   25   26 1
    50   25   27 1
    51   25   28 1
    52   27   60 1
    53   27   61 1
    54   28   29 1
    55   29   30 2
    56   29   31 1
    57   31   62 1
    58   31   63 1
    59   31   64 1
    60   32   65 1
    61   32   66 1
    62   32   67 1
    63   33   68 1
    64   33   69 1
    65   33   70 1
    66   34   35 1
    67   34   71 1
    68   34   72 1
    69   35   36 1
    70   35   73 1
    71   35   74 1
    72   36   37 1
    73   36   38 1
    74   36   39 1
    75   38   75 1
    76   38   76 1
    77   38   77 1
    78   39   40 1
    79   39   78 1
    80   39   79 1
    81   40   41 1
    82   41   42 2
    83   41   43 1
    84   43   80 1
    85   43   81 1
    86   43   82 1
@<TRIPOS>MOLECULE
ZINC33653273
   67    71     0     0     0
SMALL
USER_CHARGES
N-butyl-4-chloro-N-[2-[(4S)-4-(m-tolyl)-4H-pyrrolo[1,2-a]quinoxalin-5-yl]-2-oxo-ethyl]benzamide
@<TRIPOS>ATOM
      1 C1         -5.0227   11.2322    0.1695 C.3       1 <0>        -0.1549
      2 C2         -3.6998   10.8274    0.8230 C.3       1 <0>        -0.1255
      3 C3         -3.8312    9.4214    1.4120 C.3       1 <0>        -0.1493
      4 C4         -2.5083    9.0166    2.0655 C.3       1 <0>         0.0704
      5 N1         -2.6341    7.6703    2.6295 N.am      1 <0>        -0.5879
      6 C5         -2.5037    6.4974    1.7615 C.3       1 <0>         0.0952
      7 C6         -1.0601    6.0680    1.7108 C.2       1 <0>         0.5049
      8 O1         -0.2375    6.6228    2.4085 O.2       1 <0>        -0.4977
      9 N2         -0.6830    5.0674    0.8903 N.am      1 <0>        -0.5532
     10 C7          0.6742    4.7432    0.7606 C.ar      1 <0>         0.1386
     11 C8          1.6497    5.7110    0.9424 C.ar      1 <0>        -0.1021
     12 C9          2.9852    5.3757    0.8216 C.ar      1 <0>        -0.1069
     13 C10         3.3570    4.0781    0.5203 C.ar      1 <0>        -0.1072
     14 C11         2.3914    3.1047    0.3327 C.ar      1 <0>        -0.1159
     15 C12         1.0554    3.4342    0.4476 C.ar      1 <0>         0.1106
     16 N3          0.0403    2.4854    0.2567 N.pl3     1 <0>        -0.3893
     17 C13         0.1089    1.1346    0.1858 C.2       1 <0>         0.0121
     18 C14        -1.1431    0.6583    0.0012 C.2       1 <0>        -0.1940
     19 C15        -2.0172    1.7666   -0.0505 C.2       1 <0>        -0.1498
     20 C16        -1.2756    2.8677    0.1100 C.2       1 <0>        -0.0101
     21 C17        -1.6979    4.3168    0.1324 C.3       1 <0>         0.2531
     22 H1         -2.6772    4.4384    0.6183 H         1 <0>         0.1231
     23 C18        -1.7791    4.8470   -1.2759 C.ar      1 <0>        -0.1031
     24 C19        -0.6277    5.2330   -1.9368 C.ar      1 <0>        -0.1041
     25 C20        -0.7022    5.7188   -3.2286 C.ar      1 <0>        -0.1120
     26 C21        -1.9282    5.8187   -3.8599 C.ar      1 <0>        -0.1114
     27 C22        -3.0792    5.4328   -3.1993 C.ar      1 <0>        -0.0804
     28 C23        -3.0041    4.9420   -1.9090 C.ar      1 <0>        -0.1025
     29 C24        -4.4154    5.5413   -3.8876 C.3       1 <0>        -0.1186
     30 C25        -2.8698    7.5109    3.9469 C.2       1 <0>         0.5703
     31 O2         -3.0943    6.4032    4.3945 O.2       1 <0>        -0.5244
     32 C26        -2.8553    8.6827    4.8473 C.ar      1 <0>        -0.1256
     33 C27        -3.2183    9.9416    4.3650 C.ar      1 <0>        -0.1083
     34 C28        -3.2079   11.0303    5.2112 C.ar      1 <0>        -0.1179
     35 C29        -2.8278   10.8788    6.5345 C.ar      1 <0>        -0.0116
     36 C30        -2.4616    9.6333    7.0174 C.ar      1 <0>        -0.1155
     37 C31        -2.4731    8.5362    6.1821 C.ar      1 <0>        -0.0462
     38 Cl1        -2.8108   12.2553    7.5922 Cl        1 <0>        -0.0595
     39 H2         -4.9283   12.2430   -0.2540 H         1 <0>         0.0580
     40 H3         -5.8223   11.2243    0.9249 H         1 <0>         0.0561
     41 H4         -5.2686   10.5203   -0.6322 H         1 <0>         0.0556
     42 H5         -2.9002   10.8353    0.0676 H         1 <0>         0.0679
     43 H6         -3.4539   11.5393    1.6247 H         1 <0>         0.0664
     44 H7         -4.6308    9.4136    2.1673 H         1 <0>         0.0748
     45 H8         -4.0771    8.7095    0.6103 H         1 <0>         0.0754
     46 H9         -1.7087    9.0245    1.3101 H         1 <0>         0.0814
     47 H10        -2.2624    9.7285    2.8672 H         1 <0>         0.1177
     48 H11        -3.1168    5.6759    2.1606 H         1 <0>         0.1247
     49 H12        -2.8465    6.7516    0.7476 H         1 <0>         0.1174
     50 H13         1.3665    6.7263    1.1779 H         1 <0>         0.1471
     51 H14         3.7431    6.1318    0.9637 H         1 <0>         0.1340
     52 H15         4.4029    3.8238    0.4317 H         1 <0>         0.1356
     53 H16         2.6817    2.0914    0.0975 H         1 <0>         0.1353
     54 H17         1.0077    0.5408    0.2627 H         1 <0>         0.1684
     55 H18        -1.4232   -0.3804   -0.0940 H         1 <0>         0.1471
     56 H19        -3.0874    1.7312   -0.1913 H         1 <0>         0.1453
     57 H20         0.3299    5.1546   -1.4438 H         1 <0>         0.1175
     58 H21         0.1972    6.0200   -3.7449 H         1 <0>         0.1231
     59 H22        -1.9864    6.1980   -4.8695 H         1 <0>         0.1240
     60 H23        -3.9031    4.6362   -1.3943 H         1 <0>         0.1268
     61 H24        -5.2069    5.1902   -3.2092 H         1 <0>         0.0675
     62 H25        -4.4107    4.9224   -4.7970 H         1 <0>         0.0719
     63 H26        -4.6039    6.5905   -4.1591 H         1 <0>         0.0713
     64 H27        -3.5105   10.0618    3.3322 H         1 <0>         0.1689
     65 H28        -3.4924   12.0040    4.8403 H         1 <0>         0.1418
     66 H29        -2.1661    9.5212    8.0502 H         1 <0>         0.1428
     67 H30        -2.1874    7.5656    6.5597 H         1 <0>         0.1430
@<TRIPOS>BOND
     1    1    2 1
     2    1   39 1
     3    1   40 1
     4    1   41 1
     5    2    3 1
     6    2   42 1
     7    2   43 1
     8    3    4 1
     9    3   44 1
    10    3   45 1
    11    4    5 1
    12    4   46 1
    13    4   47 1
    14    5    6 1
    15    5   30 am
    16    6    7 1
    17    6   48 1
    18    6   49 1
    19    7    8 2
    20    7    9 am
    21    9   21 1
    22    9   10 1
    23   10   15 ar
    24   10   11 ar
    25   11   12 ar
    26   11   50 1
    27   12   13 ar
    28   12   51 1
    29   13   14 ar
    30   13   52 1
    31   14   15 ar
    32   14   53 1
    33   15   16 1
    34   16   20 1
    35   16   17 1
    36   17   18 2
    37   17   54 1
    38   18   19 1
    39   18   55 1
    40   19   20 2
    41   19   56 1
    42   20   21 1
    43   21   22 1
    44   21   23 1
    45   23   28 ar
    46   23   24 ar
    47   24   25 ar
    48   24   57 1
    49   25   26 ar
    50   25   58 1
    51   26   27 ar
    52   26   59 1
    53   27   28 ar
    54   27   29 1
    55   28   60 1
    56   29   61 1
    57   29   62 1
    58   29   63 1
    59   30   31 2
    60   30   32 1
    61   32   37 ar
    62   32   33 ar
    63   33   34 ar
    64   33   64 1
    65   34   35 ar
    66   34   65 1
    67   35   36 ar
    68   35   38 1
    69   36   37 ar
    70   36   66 1
    71   37   67 1
@<TRIPOS>MOLECULE
ZINC38267491
   68    72     0     0     0
SMALL
USER_CHARGES

@<TRIPOS>ATOM
      1 C1          1.9961    1.7424    0.8124 C.3       1 <0>        -0.1540
      2 C2          2.2520    0.2527    1.0493 C.3       1 <0>         0.0535
      3 O1          1.0211   -0.4651    0.9414 O.3       1 <0>        -0.3147
      4 C3          1.0732   -1.8099    1.1259 C.ar      1 <0>         0.1414
      5 C4          2.2869   -2.4230    1.4111 C.ar      1 <0>        -0.2109
      6 C5          2.3452   -3.7864    1.5991 C.ar      1 <0>        -0.0601
      7 C6          1.1794   -4.5538    1.5029 C.ar      1 <0>        -0.1101
      8 C7         -0.0402   -3.9314    1.2160 C.ar      1 <0>        -0.0571
      9 C8         -0.0883   -2.5667    1.0345 C.ar      1 <0>        -0.1538
     10 C9          1.2359   -6.0104    1.7023 C.2       1 <0>        -0.0393
     11 C10         1.9485   -6.5240    2.7265 C.2       1 <0>        -0.0744
     12 C11         2.5439   -5.6025    3.7475 C.3       1 <0>        -0.0792
     13 C12         3.1815   -6.3083    4.9268 C.3       1 <0>        -0.1204
     14 C13         3.8077   -7.6532    4.5634 C.3       1 <0>        -0.1040
     15 C14         2.6942   -8.5809    4.0745 C.3       1 <0>        -0.1011
     16 H1          1.9332   -8.7390    4.8387 H         1 <0>         0.1162
     17 C15         2.1180   -7.9243    2.8244 C.2       1 <0>         0.1603
     18 N1          1.8783   -8.8512    1.9619 N.2       1 <0>        -0.2493
     19 N2          2.3953  -10.1004    2.3256 N.am      1 <0>        -0.4647
     20 C16         3.2503   -9.9093    3.5338 C.3       1 <0>         0.1626
     21 H2          3.1019  -10.7162    4.2515 H         1 <0>         0.1136
     22 C17         4.7057   -9.7765    3.1663 C.ar      1 <0>        -0.1280
     23 C18         5.0637   -9.1933    1.9649 C.ar      1 <0>        -0.0614
     24 C19         6.3972   -9.0708    1.6255 C.ar      1 <0>        -0.1500
     25 C20         7.3775   -9.5330    2.4915 C.ar      1 <0>         0.1381
     26 C21         7.0157  -10.1173    3.6967 C.ar      1 <0>        -0.2058
     27 C22         5.6810  -10.2328    4.0337 C.ar      1 <0>        -0.0592
     28 O2          8.6900   -9.4140    2.1597 O.3       1 <0>        -0.3153
     29 C23         9.6444   -9.9118    3.0995 C.3       1 <0>         0.0539
     30 C24        11.0577   -9.6917    2.5563 C.3       1 <0>        -0.1534
     31 C25         2.1642  -11.2700    1.6971 C.2       1 <0>         0.6010
     32 O3          2.5977  -12.3065    2.1627 O.2       1 <0>        -0.5132
     33 C26         1.3845  -11.2930    0.4427 C.ar      1 <0>        -0.1377
     34 C27         0.7807  -10.1254   -0.0289 C.ar      1 <0>        -0.0693
     35 C28         0.0545  -10.1531   -1.2007 C.ar      1 <0>        -0.1277
     36 C29        -0.0767  -11.3358   -1.9097 C.ar      1 <0>        -0.0061
     37 C30         0.5194  -12.4973   -1.4468 C.ar      1 <0>        -0.1270
     38 C31         1.2529  -12.4810   -0.2793 C.ar      1 <0>        -0.0452
     39 Cl1        -0.9926  -11.3626   -3.3842 Cl        1 <0>        -0.0632
     40 H3          1.2927    2.1133    1.5579 H         1 <0>         0.0671
     41 H4          2.9350    2.2899    0.8947 H         1 <0>         0.0798
     42 H5          1.5783    1.8853   -0.1842 H         1 <0>         0.0672
     43 H6          2.9554   -0.1182    0.3038 H         1 <0>         0.0635
     44 H7          2.6698    0.1098    2.0458 H         1 <0>         0.0635
     45 H8          3.1863   -1.8297    1.4851 H         1 <0>         0.1301
     46 H9          3.2892   -4.2622    1.8200 H         1 <0>         0.1330
     47 H10        -0.9430   -4.5193    1.1407 H         1 <0>         0.1337
     48 H11        -1.0300   -2.0848    0.8167 H         1 <0>         0.1335
     49 H12         0.7070   -6.6685    1.0288 H         1 <0>         0.1322
     50 H13         3.3016   -4.9888    3.2601 H         1 <0>         0.0824
     51 H14         1.7584   -4.9452    4.1206 H         1 <0>         0.0830
     52 H15         3.9557   -5.6636    5.3429 H         1 <0>         0.0723
     53 H16         2.4200   -6.4721    5.6893 H         1 <0>         0.0646
     54 H17         4.5446   -7.5142    3.7724 H         1 <0>         0.0786
     55 H18         4.2871   -8.0851    5.4419 H         1 <0>         0.0754
     56 H19         4.3002   -8.8337    1.2910 H         1 <0>         0.1251
     57 H20         6.6763   -8.6159    0.6866 H         1 <0>         0.1311
     58 H21         7.7770  -10.4779    4.3725 H         1 <0>         0.1306
     59 H22         5.3989  -10.6836    4.9738 H         1 <0>         0.1274
     60 H23         9.5325   -9.3828    4.0459 H         1 <0>         0.0629
     61 H24         9.4776  -10.9774    3.2570 H         1 <0>         0.0628
     62 H25        11.1697  -10.2207    1.6099 H         1 <0>         0.0669
     63 H26        11.2246   -8.6261    2.3988 H         1 <0>         0.0668
     64 H27        11.7858  -10.0714    3.2732 H         1 <0>         0.0798
     65 H28         0.8821   -9.2028    0.5232 H         1 <0>         0.1786
     66 H29        -0.4132   -9.2509   -1.5663 H         1 <0>         0.1389
     67 H30         0.4132  -13.4164   -2.0038 H         1 <0>         0.1408
     68 H31         1.7210  -13.3862    0.0783 H         1 <0>         0.1434
@<TRIPOS>BOND
     1    1    2 1
     2    1   40 1
     3    1   41 1
     4    1   42 1
     5    2    3 1
     6    2   43 1
     7    2   44 1
     8    3    4 1
     9    4    9 ar
    10    4    5 ar
    11    5    6 ar
    12    5   45 1
    13    6    7 ar
    14    6   46 1
    15    7    8 ar
    16    7   10 1
    17    8    9 ar
    18    8   47 1
    19    9   48 1
    20   10   11 2
    21   10   49 1
    22   11   17 1
    23   11   12 1
    24   12   13 1
    25   12   50 1
    26   12   51 1
    27   13   14 1
    28   13   52 1
    29   13   53 1
    30   14   15 1
    31   14   54 1
    32   14   55 1
    33   15   16 1
    34   15   20 1
    35   15   17 1
    36   17   18 2
    37   18   19 1
    38   19   20 1
    39   19   31 am
    40   20   21 1
    41   20   22 1
    42   22   27 ar
    43   22   23 ar
    44   23   24 ar
    45   23   56 1
    46   24   25 ar
    47   24   57 1
    48   25   26 ar
    49   25   28 1
    50   26   27 ar
    51   26   58 1
    52   27   59 1
    53   28   29 1
    54   29   30 1
    55   29   60 1
    56   29   61 1
    57   30   62 1
    58   30   63 1
    59   30   64 1
    60   31   32 2
    61   31   33 1
    62   33   38 ar
    63   33   34 ar
    64   34   35 ar
    65   34   65 1
    66   35   36 ar
    67   35   66 1
    68   36   37 ar
    69   36   39 1
    70   37   38 ar
    71   37   67 1
    72   38   68 1
@<TRIPOS>MOLECULE
ZINC43758180
   87    90     0     0     0
SMALL
USER_CHARGES

@<TRIPOS>ATOM
      1 C1          0.3545    1.2285   -0.4770 C.3       1 <0>        -0.1557
      2 C2          0.0490   -0.2285   -0.1240 C.3       1 <0>        -0.1103
      3 H1          0.4726   -0.8833   -0.8855 H         1 <0>         0.1086
      4 C3         -1.4662   -0.4314   -0.0623 C.3       1 <0>        -0.1766
      5 C4         -2.1096    0.1435   -1.3258 C.3       1 <0>        -0.1241
      6 C5         -3.6054   -0.1781   -1.3280 C.3       1 <0>        -0.1143
      7 C6         -4.2488    0.3969   -2.5915 C.3       1 <0>        -0.0970
      8 C7         -5.7165   -0.0304   -2.6561 C.3       1 <0>        -0.1492
      9 C8         -4.1632    1.9241   -2.5577 C.3       1 <0>        -0.1495
     10 C9          0.6642   -0.5635    1.2363 C.3       1 <0>        -0.0710
     11 H2          0.1790    0.0170    2.0209 H         1 <0>         0.0704
     12 C10         2.1789   -0.2743    1.2205 C.3       1 <0>        -0.1220
     13 C11         2.8852   -1.6208    1.4924 C.3       1 <0>        -0.1264
     14 C12         1.8455   -2.6863    1.0345 C.3       1 <0>        -0.0721
     15 H3          2.0301   -3.6638    1.4798 H         1 <0>         0.0789
     16 C13         0.5245   -2.0638    1.5250 C.3       1 <0>        -0.0473
     17 C14        -0.6965   -2.6711    0.8731 C.3       1 <0>        -0.1155
     18 C15        -0.5844   -2.6326   -0.6508 C.3       1 <0>        -0.1855
     19 C16         0.6642   -3.4203   -1.0652 C.3       1 <0>        -0.0718
     20 H4          0.6042   -4.4351   -0.6720 H         1 <0>         0.0730
     21 C17         1.9095   -2.7294   -0.4947 C.3       1 <0>        -0.0761
     22 H5          1.9579   -1.7116   -0.8820 H         1 <0>         0.0868
     23 C18         3.1759   -3.4781   -0.9185 C.3       1 <0>        -0.1354
     24 C19         3.2670   -3.5128   -2.4447 C.3       1 <0>         0.0674
     25 H6          4.1697   -4.0459   -2.7431 H         1 <0>         0.0943
     26 C20         2.0393   -4.2313   -3.0095 C.3       1 <0>         0.1429
     27 C21         0.7408   -3.4645   -2.5932 C.3       1 <0>        -0.0596
     28 C22         0.7907   -2.0373   -3.1423 C.3       1 <0>        -0.1204
     29 C23         0.8665   -2.0806   -4.6697 C.3       1 <0>        -0.1288
     30 C24         2.1260   -2.8367   -5.0973 C.3       1 <0>         0.0757
     31 H7          3.0063   -2.3277   -4.7047 H         1 <0>         0.1078
     32 C25         2.1318   -4.2732   -4.5362 C.3       1 <0>        -0.1415
     33 O1          2.1960   -2.8774   -6.5240 O.3       1 <0>        -0.3498
     34 C26         2.8416   -1.8695   -7.1315 C.2       1 <0>         0.4594
     35 O2          3.3311   -0.9820   -6.4737 O.2       1 <0>        -0.5107
     36 C27         2.9559   -1.8448   -8.6339 C.3       1 <0>        -0.1491
     37 C28        -0.4937   -4.1802   -3.1452 C.3       1 <0>        -0.1512
     38 F1          1.9894   -5.5364   -2.5080 F         1 <0>        -0.1857
     39 O3          3.3130   -2.1770   -2.9502 O.3       1 <0>        -0.3218
     40 C29         4.5263   -1.6213   -3.0942 C.2       1 <0>         0.4527
     41 O4          5.5166   -2.2483   -2.8007 O.2       1 <0>        -0.5061
     42 C30         4.6534   -0.2155   -3.6218 C.3       1 <0>        -0.1460
     43 C31         0.4106   -2.2690    3.0369 C.3       1 <0>        -0.1449
     44 H8          1.4340    1.3731   -0.5209 H         1 <0>         0.0542
     45 H9         -0.0838    1.4672   -1.4461 H         1 <0>         0.0571
     46 H10        -0.0691    1.8834    0.2845 H         1 <0>         0.0515
     47 H11        -1.6877   -1.4965    0.0058 H         1 <0>         0.1260
     48 H12        -1.8658    0.0795    0.8137 H         1 <0>         0.0561
     49 H13        -1.9703    1.2244   -1.3449 H         1 <0>         0.0648
     50 H14        -1.6416   -0.2987   -2.2053 H         1 <0>         0.0586
     51 H15        -3.7447   -1.2590   -1.3089 H         1 <0>         0.0599
     52 H16        -4.0734    0.2641   -0.4485 H         1 <0>         0.0596
     53 H17        -3.7225    0.0228   -3.4697 H         1 <0>         0.0675
     54 H18        -6.2428    0.3437   -1.7779 H         1 <0>         0.0532
     55 H19        -6.1749    0.3792   -3.5562 H         1 <0>         0.0528
     56 H20        -5.7775   -1.1184   -2.6801 H         1 <0>         0.0532
     57 H21        -4.6894    2.2982   -1.6796 H         1 <0>         0.0527
     58 H22        -3.1175    2.2284   -2.5117 H         1 <0>         0.0562
     59 H23        -4.6215    2.3337   -3.4579 H         1 <0>         0.0513
     60 H24         2.4754    0.1131    0.2457 H         1 <0>         0.0668
     61 H25         2.4305    0.4440    2.0008 H         1 <0>         0.0602
     62 H26         3.7987   -1.6997    0.9030 H         1 <0>         0.0634
     63 H27         3.1033   -1.7309    2.5546 H         1 <0>         0.0644
     64 H28        -0.7976   -3.7066    1.1980 H         1 <0>         0.0572
     65 H29        -1.5809   -2.1130    1.1806 H         1 <0>         0.0809
     66 H30        -1.4693   -3.0883   -1.0949 H         1 <0>         0.0647
     67 H31        -0.4935   -1.5992   -0.9855 H         1 <0>         0.1417
     68 H32         4.0507   -2.9687   -0.5143 H         1 <0>         0.0776
     69 H33         3.1405   -4.4974   -0.5339 H         1 <0>         0.0851
     70 H34        -0.1072   -1.4995   -2.8382 H         1 <0>         0.0782
     71 H35         1.6702   -1.5274   -2.7493 H         1 <0>         0.1034
     72 H36        -0.0137   -2.5894   -5.0629 H         1 <0>         0.0736
     73 H37         0.9030   -1.0637   -5.0606 H         1 <0>         0.0713
     74 H38         3.0297   -4.8163   -4.8311 H         1 <0>         0.0834
     75 H39         1.2533   -4.7768   -4.9398 H         1 <0>         0.0904
     76 H40         2.1040   -1.3105   -9.0544 H         1 <0>         0.1052
     77 H41         3.8786   -1.3397   -8.9199 H         1 <0>         0.1032
     78 H42         2.9679   -2.8662   -9.0143 H         1 <0>         0.0932
     79 H43        -1.3917   -3.6420   -2.8418 H         1 <0>         0.0690
     80 H44        -0.4392   -4.2117   -4.2334 H         1 <0>         0.0619
     81 H45        -0.5297   -5.1968   -2.7536 H         1 <0>         0.0608
     82 H46         3.6614    0.1857   -3.8295 H         1 <0>         0.0930
     83 H47         5.1492    0.4083   -2.8781 H         1 <0>         0.1035
     84 H48         5.2415   -0.2236   -4.5396 H         1 <0>         0.1084
     85 H49        -0.4797   -1.7601    3.4065 H         1 <0>         0.0535
     86 H50         0.3368   -3.3345    3.2544 H         1 <0>         0.0528
     87 H51         1.2935   -1.8584    3.5268 H         1 <0>         0.0557
@<TRIPOS>BOND
     1    1    2 1
     2    1   44 1
     3    1   45 1
     4    1   46 1
     5    2    3 1
     6    2    4 1
     7    2   10 1
     8    4    5 1
     9    4   47 1
    10    4   48 1
    11    5    6 1
    12    5   49 1
    13    5   50 1
    14    6    7 1
    15    6   51 1
    16    6   52 1
    17    7    8 1
    18    7    9 1
    19    7   53 1
    20    8   54 1
    21    8   55 1
    22    8   56 1
    23    9   57 1
    24    9   58 1
    25    9   59 1
    26   10   11 1
    27   10   16 1
    28   10   12 1
    29   12   13 1
    30   12   60 1
    31   12   61 1
    32   13   14 1
    33   13   62 1
    34   13   63 1
    35   14   15 1
    36   14   21 1
    37   14   16 1
    38   16   17 1
    39   16   43 1
    40   17   18 1
    41   17   64 1
    42   17   65 1
    43   18   19 1
    44   18   66 1
    45   18   67 1
    46   19   20 1
    47   19   27 1
    48   19   21 1
    49   21   22 1
    50   21   23 1
    51   23   24 1
    52   23   68 1
    53   23   69 1
    54   24   25 1
    55   24   26 1
    56   24   39 1
    57   26   32 1
    58   26   27 1
    59   26   38 1
    60   27   28 1
    61   27   37 1
    62   28   29 1
    63   28   70 1
    64   28   71 1
    65   29   30 1
    66   29   72 1
    67   29   73 1
    68   30   31 1
    69   30   32 1
    70   30   33 1
    71   32   74 1
    72   32   75 1
    73   33   34 1
    74   34   35 2
    75   34   36 1
    76   36   76 1
    77   36   77 1
    78   36   78 1
    79   37   79 1
    80   37   80 1
    81   37   81 1
    82   39   40 1
    83   40   41 2
    84   40   42 1
    85   42   82 1
    86   42   83 1
    87   42   84 1
    88   43   85 1
    89   43   86 1
    90   43   87 1
@<TRIPOS>MOLECULE
ZINC08837621
   73    78     0     0     0
SMALL
USER_CHARGES
isopropyl-dimethyl-(3-nitrophenyl)-dioxo-BLAHcarboxylic acid
@<TRIPOS>ATOM
      1 C1         -0.8443    0.6446   -5.9743 C.3       1 <0>        -0.1456
      2 C2          0.1668    1.3613   -5.0771 C.3       1 <0>        -0.0555
      3 C3          0.5479    2.7021   -5.7080 C.3       1 <0>        -0.1435
      4 C4         -0.4458    1.6003   -3.7208 C.2       1 <0>        -0.1179
      5 C5          0.1152    1.0804   -2.6363 C.2       1 <0>        -0.1631
      6 C6         -0.6939    1.4555   -1.3634 C.3       1 <0>         0.0169
      7 C7          0.0364    0.9506   -0.1413 C.3       1 <0>        -0.0944
      8 C8         -0.6151    1.4216    1.1489 C.3       1 <0>        -0.1124
      9 C9         -1.4791    2.6635    0.9923 C.3       1 <0>        -0.0376
     10 H1         -2.4530    2.2437    0.6116 H         1 <0>         0.0505
     11 C10        -1.0559    3.6083   -0.0922 C.3       1 <0>        -0.0408
     12 C11        -0.6636    2.9717   -1.3932 C.3       1 <0>        -0.0767
     13 H2          0.4111    3.1951   -1.4315 H         1 <0>         0.0746
     14 C12        -1.1926    3.6131   -2.6580 C.3       1 <0>        -0.1119
     15 C13        -1.7257    2.4476   -3.5951 C.3       1 <0>        -0.0100
     16 H3         -2.1650    2.7607   -4.5402 H         1 <0>         0.1166
     17 C14        -2.6845    1.8273   -2.6231 C.3       1 <0>        -0.1623
     18 H4         -2.8396    2.6138   -1.8844 H         1 <0>         0.1161
     19 C15        -1.9787    0.7714   -1.7326 C.3       1 <0>        -0.0862
     20 H5         -1.7505   -0.1241   -2.3279 H         1 <0>         0.1242
     21 C16        -3.1326    0.4824   -0.8291 C.2       1 <0>         0.5133
     22 O1         -3.0949    0.1616    0.3413 O.2       1 <0>        -0.3626
     23 N1         -4.2597    0.6325   -1.5894 N.am      1 <0>        -0.5478
     24 C17        -4.0292    1.2819   -2.7772 C.2       1 <0>         0.5612
     25 O2         -4.7679    1.3795   -3.7348 O.2       1 <0>        -0.4560
     26 C18        -5.5310    0.2064   -1.1796 C.ar      1 <0>         0.1402
     27 C19        -5.6950   -0.4046    0.0564 C.ar      1 <0>        -0.0831
     28 C20        -6.9486   -0.8228    0.4575 C.ar      1 <0>        -0.0903
     29 C21        -8.0399   -0.6337   -0.3707 C.ar      1 <0>        -0.0716
     30 C22        -7.8798   -0.0257   -1.6019 C.ar      1 <0>        -0.0284
     31 C23        -6.6291    0.3996   -2.0064 C.ar      1 <0>        -0.0932
     32 N2         -9.0503    0.1745   -2.4855 N.pl3     1 <0>         0.0321
     33 O3        -10.1539   -0.1964   -2.1278 O.2       1 <0>        -0.1622
     34 O4         -8.9098    0.7101   -3.5704 O.3       1 <0>        -0.1584
     35 C24        -1.9460    4.8257   -0.2364 C.3       1 <0>        -0.0977
     36 C25        -2.1435    5.5024    1.1213 C.3       1 <0>        -0.1146
     37 C26        -2.7422    4.5197    2.1166 C.3       1 <0>        -0.0915
     38 C27        -1.8469    3.2943    2.3325 C.3       1 <0>        -0.0872
     39 C28        -0.6529    3.6625    3.2121 C.3       1 <0>        -0.1234
     40 C29        -2.6803    2.2822    3.1239 C.2       1 <0>         0.4626
     41 O5         -2.9306    1.2008    2.6465 O.co2     1 <0>        -0.6114
     42 C30         0.2891    4.1943    0.3374 C.3       1 <0>        -0.1615
     43 H6         -0.4013    0.4718   -6.9551 H         1 <0>         0.0545
     44 H7         -1.1158   -0.3106   -5.5248 H         1 <0>         0.0532
     45 H8         -1.7361    1.2620   -6.0821 H         1 <0>         0.0588
     46 H9          1.0586    0.7439   -4.9693 H         1 <0>         0.0734
     47 H10         1.2682    3.2127   -5.0689 H         1 <0>         0.0549
     48 H11         0.9909    2.5292   -6.6888 H         1 <0>         0.0536
     49 H12        -0.3439    3.3195   -5.8158 H         1 <0>         0.0575
     50 H13         1.0099    0.4788   -2.6275 H         1 <0>         0.1370
     51 H14         0.0389   -0.1440   -0.1567 H         1 <0>         0.0606
     52 H15         1.0722    1.2959   -0.1717 H         1 <0>         0.0618
     53 H16        -1.2348    0.6113    1.5306 H         1 <0>         0.1037
     54 H17         0.1758    1.6173    1.8687 H         1 <0>         0.0454
     55 H18        -0.3903    4.1527   -3.1662 H         1 <0>         0.0725
     56 H19        -2.0064    4.3012   -2.4334 H         1 <0>         0.0769
     57 H20        -4.8430   -0.5529    0.7033 H         1 <0>         0.1809
     58 H21        -7.0768   -1.2978    1.4189 H         1 <0>         0.1567
     59 H22        -9.0194   -0.9613   -0.0547 H         1 <0>         0.1548
     60 H23        -6.5053    0.8782   -2.9666 H         1 <0>         0.1765
     61 H24        -1.4882    5.5351   -0.9335 H         1 <0>         0.0605
     62 H25        -2.9193    4.5247   -0.6384 H         1 <0>         0.0482
     63 H26        -2.8498    6.3365    0.9922 H         1 <0>         0.0476
     64 H27        -1.2177    5.9190    1.4993 H         1 <0>         0.0646
     65 H28        -3.7172    4.1880    1.7527 H         1 <0>         0.0451
     66 H29        -2.8834    5.0251    3.0761 H         1 <0>         0.0621
     67 H30        -0.0981    4.4783    2.7486 H         1 <0>         0.0428
     68 H31        -1.0079    3.9762    4.1938 H         1 <0>         0.0587
     69 H32        -0.0011    2.7958    3.3213 H         1 <0>         0.0440
     70 H33         0.7039    4.7876   -0.4775 H         1 <0>         0.0405
     71 H34         0.1464    4.8284    1.2124 H         1 <0>         0.0654
     72 H35         0.9762    3.3847    0.5836 H         1 <0>         0.0528
     73 O6         -3.1328    2.5964    4.3479 O.co2     1 <0>        -0.7746
@<TRIPOS>BOND
     1    1    2 1
     2    1   43 1
     3    1   44 1
     4    1   45 1
     5    2    3 1
     6    2    4 1
     7    2   46 1
     8    3   47 1
     9    3   48 1
    10    3   49 1
    11    4   15 1
    12    4    5 2
    13    5    6 1
    14    5   50 1
    15    6   12 1
    16    6   19 1
    17    6    7 1
    18    7    8 1
    19    7   51 1
    20    7   52 1
    21    8    9 1
    22    8   53 1
    23    8   54 1
    24    9   10 1
    25    9   38 1
    26    9   11 1
    27   11   12 1
    28   11   35 1
    29   11   42 1
    30   12   13 1
    31   12   14 1
    32   14   15 1
    33   14   55 1
    34   14   56 1
    35   15   16 1
    36   15   17 1
    37   17   18 1
    38   17   24 1
    39   17   19 1
    40   19   20 1
    41   19   21 1
    42   21   22 2
    43   21   23 am
    44   23   24 am
    45   23   26 1
    46   24   25 2
    47   26   31 ar
    48   26   27 ar
    49   27   28 ar
    50   27   57 1
    51   28   29 ar
    52   28   58 1
    53   29   30 ar
    54   29   59 1
    55   30   31 ar
    56   30   32 1
    57   31   60 1
    58   32   33 2
    59   32   34 1
    60   35   36 1
    61   35   61 1
    62   35   62 1
    63   36   37 1
    64   36   63 1
    65   36   64 1
    66   37   38 1
    67   37   65 1
    68   37   66 1
    69   38   39 1
    70   38   40 1
    71   39   67 1
    72   39   68 1
    73   39   69 1
    74   40   41 2
    75   40   73 1
    76   42   70 1
    77   42   71 1
    78   42   72 1
@<TRIPOS>MOLECULE
ZINC34953347
   63    66     0     0     0
SMALL
USER_CHARGES

@<TRIPOS>ATOM
      1 C1          2.5276   -1.1820   -1.4743 C.3       1 <0>        -0.1104
      2 C2          1.2372   -1.3670   -0.7182 C.ar      1 <0>        -0.0915
      3 C3          0.0714   -0.7892   -1.1901 C.ar      1 <0>        -0.1184
      4 C4         -1.1177   -0.9536   -0.5019 C.ar      1 <0>        -0.1222
      5 C5         -1.1485   -1.6961    0.6604 C.ar      1 <0>        -0.0664
      6 C6          0.0238   -2.2822    1.1419 C.ar      1 <0>        -0.1039
      7 C7          1.2196   -2.1164    0.4393 C.ar      1 <0>        -0.0781
      8 C8         -0.0016   -3.0794    2.3870 C.2       1 <0>         0.4713
      9 C9         -0.0879   -2.4067    3.6861 C.2       1 <0>        -0.4698
     10 C10        -0.0516   -0.9166    3.9338 C.3       1 <0>         0.2512
     11 H1         -0.8868   -0.4322    3.4278 H         1 <0>         0.0875
     12 N1         -0.1704   -0.7404    5.3859 N.am      1 <0>        -0.5045
     13 C11        -0.2660   -1.9606    5.9445 C.2       1 <0>         0.5065
     14 O1         -0.3777   -2.1754    7.1351 O.2       1 <0>        -0.4573
     15 C12        -0.2215   -3.0004    4.8960 C.2       1 <0>         0.2884
     16 O2         -0.2988   -4.3338    5.1106 O.3       1 <0>        -0.5895
     17 C13        -0.1821    0.4657    6.0603 C.2       1 <0>         0.3403
     18 N2         -0.2811    0.6737    7.3612 N.2       1 <0>        -0.5575
     19 C14        -0.2785    1.8821    7.8628 C.2       1 <0>         0.2181
     20 C15        -0.1662    2.9267    6.9538 C.2       1 <0>        -0.3423
     21 S1         -0.0660    2.0177    5.4200 S.3       1 <0>         0.1975
     22 C16        -0.1337    4.3689    7.1883 C.2       1 <0>         0.5699
     23 O3         -0.2113    4.8028    8.3223 O.2       1 <0>        -0.5047
     24 O4         -0.0175    5.2193    6.1471 O.3       1 <0>        -0.3509
     25 C17         0.0079    6.6156    6.4496 C.3       1 <0>         0.0375
     26 C18        -0.3916    2.1275    9.3454 C.3       1 <0>        -0.0912
     27 C19         1.2538   -0.3421    3.4471 C.ar      1 <0>        -0.0916
     28 C20         2.4196   -0.5827    4.1499 C.ar      1 <0>        -0.0915
     29 C21         3.6170   -0.0557    3.7035 C.ar      1 <0>        -0.1177
     30 C22         3.6488    0.7115    2.5541 C.ar      1 <0>        -0.0766
     31 C23         2.4831    0.9514    1.8508 C.ar      1 <0>        -0.1085
     32 C24         1.2863    0.4208    2.2948 C.ar      1 <0>        -0.0881
     33 C25         4.9540    1.2869    2.0680 C.3       1 <0>        -0.0549
     34 C26         5.2539    0.7567    0.6644 C.3       1 <0>        -0.1429
     35 C27         4.8545    2.8131    2.0261 C.3       1 <0>        -0.1424
     36 O5          0.0492   -4.2938    2.3329 O.2       1 <0>        -0.4772
     37 C28        -2.4443   -1.8737    1.4089 C.3       1 <0>        -0.1258
     38 H2          2.6810   -2.0283   -2.1438 H         1 <0>         0.0644
     39 H3          2.4786   -0.2621   -2.0570 H         1 <0>         0.0613
     40 H4          3.3565   -1.1216   -0.7691 H         1 <0>         0.0658
     41 H5          0.0900   -0.2069   -2.0996 H         1 <0>         0.1156
     42 H6         -2.0236   -0.4995   -0.8752 H         1 <0>         0.1191
     43 H7          2.1290   -2.5707    0.8039 H         1 <0>         0.1170
     44 H8          0.8557    6.8312    7.0998 H         1 <0>         0.0604
     45 H9          0.1043    7.1859    5.5257 H         1 <0>         0.1015
     46 H10        -0.9171    6.8950    6.9541 H         1 <0>         0.0605
     47 H11         0.6046    2.1499    9.7870 H         1 <0>         0.0840
     48 H12        -0.8875    3.0825    9.5188 H         1 <0>         0.0938
     49 H13        -0.9739    1.3274    9.8026 H         1 <0>         0.0800
     50 H14         2.3948   -1.1822    5.0479 H         1 <0>         0.1117
     51 H15         4.5277   -0.2431    4.2530 H         1 <0>         0.1160
     52 H16         2.5078    1.5511    0.9529 H         1 <0>         0.1179
     53 H17         0.3762    0.6052    1.7433 H         1 <0>         0.1201
     54 H18         5.7554    0.9935    2.7461 H         1 <0>         0.0731
     55 H19         6.1980    1.1728    0.3129 H         1 <0>         0.0533
     56 H20         5.3247   -0.3306    0.6943 H         1 <0>         0.0559
     57 H21         4.4525    1.0501   -0.0137 H         1 <0>         0.0581
     58 H22         4.6409    3.1908    3.0260 H         1 <0>         0.0551
     59 H23         5.7986    3.2292    1.6745 H         1 <0>         0.0534
     60 H24         4.0532    3.1065    1.3480 H         1 <0>         0.0569
     61 H25        -2.9120   -2.8113    1.1083 H         1 <0>         0.0702
     62 H26        -2.2451   -1.8942    2.4804 H         1 <0>         0.0788
     63 H27        -3.1131   -1.0442    1.1795 H         1 <0>         0.0638
@<TRIPOS>BOND
     1    1    2 1
     2    1   38 1
     3    1   39 1
     4    1   40 1
     5    2    7 ar
     6    2    3 ar
     7    3    4 ar
     8    3   41 1
     9    4    5 ar
    10    4   42 1
    11    5    6 ar
    12    5   37 1
    13    6    7 ar
    14    6    8 1
    15    7   43 1
    16    8    9 1
    17    8   36 2
    18    9   15 2
    19    9   10 1
    20   10   12 1
    21   10   27 1
    22   10   11 1
    23   12   17 1
    24   12   13 am
    25   13   14 2
    26   13   15 1
    27   15   16 1
    28   17   21 1
    29   17   18 2
    30   18   19 1
    31   19   20 2
    32   19   26 1
    33   20   21 1
    34   20   22 1
    35   22   23 2
    36   22   24 1
    37   24   25 1
    38   25   44 1
    39   25   45 1
    40   25   46 1
    41   26   47 1
    42   26   48 1
    43   26   49 1
    44   27   32 ar
    45   27   28 ar
    46   28   29 ar
    47   28   50 1
    48   29   30 ar
    49   29   51 1
    50   30   31 ar
    51   30   33 1
    52   31   32 ar
    53   31   52 1
    54   32   53 1
    55   33   34 1
    56   33   35 1
    57   33   54 1
    58   34   55 1
    59   34   56 1
    60   34   57 1
    61   35   58 1
    62   35   59 1
    63   35   60 1
    64   37   61 1
    65   37   62 1
    66   37   63 1
@<TRIPOS>MOLECULE
ZINC36052878
   68    71     0     0     0
SMALL
USER_CHARGES

@<TRIPOS>ATOM
      1 C1         -0.4496    0.2349    0.0209 C.3       1 <0>        -0.1254
      2 C2         -0.3402   -1.2462   -0.3469 C.3       1 <0>        -0.0910
      3 C3          0.5027   -1.3949   -1.5872 C.2       1 <0>         0.3076
      4 C4          1.8793   -1.4446   -1.4793 C.2       1 <0>        -0.3892
      5 C5          2.6814   -1.5951   -2.7526 C.3       1 <0>         0.2600
      6 H1          3.3615   -0.7462   -2.8231 H         1 <0>         0.0726
      7 N1          1.9190   -1.6779   -4.0269 N.pl3     1 <0>        -0.5127
      8 C6          2.4384   -1.8164   -5.2986 C.2       1 <0>         0.2258
      9 C7          1.5663   -1.8727   -6.3293 C.2       1 <0>        -0.2982
     10 S1         -0.0010   -1.7287   -5.4942 S.3       1 <0>         0.1393
     11 C8          0.5584   -1.6089   -3.9163 C.2       1 <0>         0.3212
     12 N2         -0.0806   -1.4823   -2.7715 N.2       1 <0>        -0.5947
     13 C9          3.8887   -1.8992   -5.5234 C.2       1 <0>        -0.4470
     14 C10         4.3647   -2.1873   -6.7501 C.2       1 <0>         0.5015
     15 O1          3.5149   -2.2823   -7.8016 O.3       1 <0>        -0.6967
     16 N3          5.7222   -2.3863   -6.9368 N.pl3     1 <0>        -0.6404
     17 C11         6.5467   -2.9713   -5.8706 C.3       1 <0>         0.1325
     18 C12         7.3035   -4.1764   -6.4377 C.3       1 <0>        -0.1334
     19 C13         8.0921   -3.7422   -7.6754 C.3       1 <0>        -0.0971
     20 C14         7.1245   -3.2322   -8.7458 C.3       1 <0>        -0.0968
     21 H2          6.4154   -4.0199   -9.0003 H         1 <0>         0.1117
     22 C15         6.3644   -2.0220   -8.2071 C.3       1 <0>         0.1495
     23 C16         7.8990   -2.8359   -9.9763 C.2       1 <0>         0.4727
     24 O2          9.1018   -2.9494   -9.9956 O.2       1 <0>        -0.5140
     25 O3          7.2527   -2.3567  -11.0507 O.3       1 <0>        -0.3464
     26 C17         8.0500   -2.0008  -12.1820 C.3       1 <0>         0.0591
     27 C18         7.1450   -1.4789  -13.2998 C.3       1 <0>        -0.1523
     28 C19         3.5161   -2.8438   -2.6303 C.ar      1 <0>        -0.0749
     29 C20         2.9370   -4.0840   -2.8237 C.ar      1 <0>        -0.0869
     30 C21         3.7026   -5.2295   -2.7115 C.ar      1 <0>        -0.1222
     31 C22         5.0476   -5.1347   -2.4064 C.ar      1 <0>        -0.0898
     32 C23         5.6269   -3.8945   -2.2139 C.ar      1 <0>        -0.1248
     33 C24         4.8622   -2.7488   -2.3303 C.ar      1 <0>        -0.0754
     34 C25         5.8821   -6.3835   -2.2831 C.3       1 <0>        -0.1092
     35 C26         2.5108   -1.3582   -0.2326 C.2       1 <0>         0.5372
     36 O4          1.8439   -1.3155    0.7866 O.2       1 <0>        -0.5452
     37 O5          3.8598   -1.3222   -0.1595 O.3       1 <0>        -0.3562
     38 C27         4.4366   -1.2337    1.1449 C.3       1 <0>         0.0415
     39 H3          0.5460    0.6374    0.2078 H         1 <0>         0.0541
     40 H4         -0.9134    0.7801   -0.8012 H         1 <0>         0.0479
     41 H5         -1.0593    0.3425    0.9180 H         1 <0>         0.0565
     42 H6          0.1236   -1.7914    0.4752 H         1 <0>         0.1186
     43 H7         -1.3358   -1.6486   -0.5338 H         1 <0>         0.0690
     44 H8          1.7673   -1.9772   -7.3852 H         1 <0>         0.2376
     45 H9          4.5726   -1.7291   -4.7051 H         1 <0>         0.0917
     46 H10         7.2589   -2.2289   -5.5105 H         1 <0>         0.0446
     47 H11         5.9067   -3.2950   -5.0498 H         1 <0>         0.0849
     48 H12         7.9913   -4.5613   -5.6847 H         1 <0>         0.0711
     49 H13         6.5928   -4.9553   -6.7140 H         1 <0>         0.0659
     50 H14         8.7852   -2.9461   -7.4035 H         1 <0>         0.0684
     51 H15         8.6511   -4.5922   -8.0665 H         1 <0>         0.0660
     52 H16         5.6042   -1.7195   -8.9273 H         1 <0>         0.0956
     53 H17         7.0615   -1.2005   -8.0417 H         1 <0>         0.0458
     54 H18         8.7596   -1.2243  -11.8966 H         1 <0>         0.0650
     55 H19         8.5932   -2.8778  -12.5340 H         1 <0>         0.0639
     56 H20         6.6018   -0.6019  -12.9478 H         1 <0>         0.0684
     57 H21         7.7531   -1.2075  -14.1627 H         1 <0>         0.0760
     58 H22         6.4353   -2.2554  -13.5852 H         1 <0>         0.0669
     59 H23         1.8862   -4.1580   -3.0620 H         1 <0>         0.1029
     60 H24         3.2500   -6.1984   -2.8618 H         1 <0>         0.1129
     61 H25         6.6776   -3.8204   -1.9752 H         1 <0>         0.1156
     62 H26         5.3157   -1.7796   -2.1837 H         1 <0>         0.1187
     63 H27         6.3069   -6.6340   -3.2551 H         1 <0>         0.0668
     64 H28         6.6867   -6.2136   -1.5677 H         1 <0>         0.0613
     65 H29         5.2561   -7.2061   -1.9373 H         1 <0>         0.0601
     66 H30         4.1343   -2.0987    1.7353 H         1 <0>         0.0513
     67 H31         5.5232   -1.2129    1.0610 H         1 <0>         0.0893
     68 H32         4.0924   -0.3221    1.6333 H         1 <0>         0.0511
@<TRIPOS>BOND
     1    1    2 1
     2    1   39 1
     3    1   40 1
     4    1   41 1
     5    2    3 1
     6    2   42 1
     7    2   43 1
     8    3   12 1
     9    3    4 2
    10    4    5 1
    11    4   35 1
    12    5    6 1
    13    5    7 1
    14    5   28 1
    15    7   11 1
    16    7    8 1
    17    8    9 2
    18    8   13 1
    19    9   10 1
    20    9   44 1
    21   10   11 1
    22   11   12 2
    23   13   14 2
    24   13   45 1
    25   14   15 1
    26   14   16 1
    27   16   22 1
    28   16   17 1
    29   17   18 1
    30   17   46 1
    31   17   47 1
    32   18   19 1
    33   18   48 1
    34   18   49 1
    35   19   20 1
    36   19   50 1
    37   19   51 1
    38   20   21 1
    39   20   22 1
    40   20   23 1
    41   22   52 1
    42   22   53 1
    43   23   24 2
    44   23   25 1
    45   25   26 1
    46   26   27 1
    47   26   54 1
    48   26   55 1
    49   27   56 1
    50   27   57 1
    51   27   58 1
    52   28   33 ar
    53   28   29 ar
    54   29   30 ar
    55   29   59 1
    56   30   31 ar
    57   30   60 1
    58   31   32 ar
    59   31   34 1
    60   32   33 ar
    61   32   61 1
    62   33   62 1
    63   34   63 1
    64   34   64 1
    65   34   65 1
    66   35   36 2
    67   35   37 1
    68   37   38 1
    69   38   66 1
    70   38   67 1
    71   38   68 1
@<TRIPOS>MOLECULE
ZINC39898905
   50    54     0     0     0
SMALL
USER_CHARGES

@<TRIPOS>ATOM
      1 C1         -0.0184    1.5028    0.0103 C.3       1 <0>        -0.1141
      2 C2          0.0021   -0.0041    0.0020 C.ar      1 <0>        -0.0832
      3 C3          0.0057   -0.6887   -1.1989 C.ar      1 <0>        -0.1231
      4 C4          0.0245   -2.0709   -1.2065 C.ar      1 <0>        -0.0934
      5 C5          0.0400   -2.7685   -0.0132 C.ar      1 <0>        -0.1175
      6 C6          0.0373   -2.0839    1.1877 C.ar      1 <0>        -0.0901
      7 C7          0.0229   -0.7016    1.1953 C.ar      1 <0>        -0.1255
      8 C8          0.0595   -4.2753   -0.0215 C.3       1 <0>         0.1813
      9 N1          1.4468   -4.7457   -0.0317 N.am      1 <0>        -0.5962
     10 C9          2.2493   -5.0074   -1.2322 C.3       1 <0>         0.2627
     11 H1          2.3545   -4.0945   -1.8184 H         1 <0>         0.1097
     12 C10         3.5969   -5.4687   -0.7483 C.2       1 <0>        -0.1999
     13 C11         4.8483   -5.8899   -1.0669 C.2       1 <0>         0.1874
     14 N2          5.4964   -6.1198    0.1130 N.pl3     1 <0>        -0.3879
     15 N3          4.7137   -5.8632    1.1000 N.2       1 <0>        -0.2285
     16 H2          6.4116   -6.4307    0.1942 H         1 <0>         0.4466
     17 C12         3.5369   -5.4607    0.6637 C.2       1 <0>        -0.0499
     18 C13         2.1923   -5.0019    1.0568 C.2       1 <0>         0.6180
     19 O1          1.8105   -4.8760    2.2041 O.2       1 <0>        -0.5257
     20 C14         5.4016   -6.0660   -2.4277 C.ar      1 <0>        -0.2100
     21 C15         5.7511   -7.3370   -2.8828 C.ar      1 <0>        -0.0267
     22 C16         6.2670   -7.4953   -4.1537 C.ar      1 <0>        -0.1661
     23 C17         6.4392   -6.3958   -4.9783 C.ar      1 <0>        -0.0465
     24 C18         6.0964   -5.1319   -4.5365 C.ar      1 <0>        -0.2495
     25 C19         5.5713   -4.9587   -3.2662 C.ar      1 <0>         0.3023
     26 O2          5.2285   -3.7173   -2.8337 O.3       1 <0>        -0.6959
     27 Cl1         6.7019   -9.0777   -4.7199 Cl        1 <0>        -0.1219
     28 C20         1.6006   -6.0838   -2.0638 C.ar      1 <0>        -0.0623
     29 C21         0.9915   -7.1607   -1.4469 C.ar      1 <0>        -0.0954
     30 C22         0.3960   -8.1480   -2.2092 C.ar      1 <0>        -0.0933
     31 C23         0.4094   -8.0584   -3.5895 C.ar      1 <0>        -0.0883
     32 C24         1.0190   -6.9807   -4.2063 C.ar      1 <0>        -0.0860
     33 C25         1.6097   -5.9912   -3.4431 C.ar      1 <0>        -0.0864
     34 Br1        -0.4047   -9.4091   -4.6329 Br        1 <0>        -0.0623
     35 H3          1.0042    1.8801    0.0026 H         1 <0>         0.0700
     36 H4         -0.5455    1.8639   -0.8728 H         1 <0>         0.0648
     37 H5         -0.5286    1.8543    0.9071 H         1 <0>         0.0640
     38 H6         -0.0064   -0.1436   -2.1312 H         1 <0>         0.1213
     39 H7          0.0266   -2.6057   -2.1448 H         1 <0>         0.1228
     40 H8          0.0491   -2.6289    2.1200 H         1 <0>         0.1259
     41 H9          0.0245   -0.1667    2.1335 H         1 <0>         0.1196
     42 H10        -0.4447   -4.6501    0.8693 H         1 <0>         0.0953
     43 H11        -0.4546   -4.6404   -0.9106 H         1 <0>         0.0929
     44 H12         5.6187   -8.1962   -2.2420 H         1 <0>         0.1027
     45 H13         6.8436   -6.5267   -5.9711 H         1 <0>         0.1054
     46 H14         6.2338   -4.2786   -5.1842 H         1 <0>         0.1089
     47 H15         0.9814   -7.2308   -0.3693 H         1 <0>         0.1257
     48 H16        -0.0795   -8.9894   -1.7272 H         1 <0>         0.1290
     49 H17         1.0297   -6.9103   -5.2839 H         1 <0>         0.1322
     50 H18         2.0820   -5.1477   -3.9245 H         1 <0>         0.1369
@<TRIPOS>BOND
     1    1    2 1
     2    1   35 1
     3    1   36 1
     4    1   37 1
     5    2    7 ar
     6    2    3 ar
     7    3    4 ar
     8    3   38 1
     9    4    5 ar
    10    4   39 1
    11    5    6 ar
    12    5    8 1
    13    6    7 ar
    14    6   40 1
    15    7   41 1
    16    8    9 1
    17    8   42 1
    18    8   43 1
    19    9   18 am
    20    9   10 1
    21   10   11 1
    22   10   12 1
    23   10   28 1
    24   12   17 1
    25   12   13 2
    26   13   20 1
    27   13   14 1
    28   14   16 1
    29   14   15 1
    30   15   17 2
    31   17   18 1
    32   18   19 2
    33   20   25 ar
    34   20   21 ar
    35   21   22 ar
    36   21   44 1
    37   22   23 ar
    38   22   27 1
    39   23   24 ar
    40   23   45 1
    41   24   25 ar
    42   24   46 1
    43   25   26 1
    44   28   33 ar
    45   28   29 ar
    46   29   30 ar
    47   29   47 1
    48   30   31 ar
    49   30   48 1
    50   31   32 ar
    51   31   34 1
    52   32   33 ar
    53   32   49 1
    54   33   50 1
@<TRIPOS>MOLECULE
ZINC40475541
   54    58     0     0     0
SMALL
USER_CHARGES

@<TRIPOS>ATOM
      1 C1         -0.0187    1.5258    0.0104 C.3       1 <0>        -0.1396
      2 C2          0.0021   -0.0041    0.0020 C.3       1 <0>        -0.0295
      3 C3          0.7421   -0.5109    1.2415 C.3       1 <0>        -0.1373
      4 C4         -1.4333   -0.5336    0.0129 C.3       1 <0>        -0.1441
      5 C5          0.7074   -0.4901   -1.2379 C.ar      1 <0>        -0.0667
      6 C6          0.0361   -1.2843   -2.1485 C.ar      1 <0>        -0.1170
      7 C7          0.6831   -1.7301   -3.2859 C.ar      1 <0>        -0.1026
      8 C8          2.0014   -1.3813   -3.5127 C.ar      1 <0>        -0.0824
      9 C9          2.6724   -0.5863   -2.6025 C.ar      1 <0>        -0.0918
     10 C10         2.0241   -0.1370   -1.4673 C.ar      1 <0>        -0.1104
     11 C11         2.7070   -1.8681   -4.7521 C.3       1 <0>         0.0621
     12 H1          2.0039   -2.4724   -5.3253 H         1 <0>         0.0763
     13 C12         3.0721   -0.6919   -5.5654 C.2       1 <0>        -0.2927
     14 C13         4.2029   -0.4505   -6.2846 C.2       1 <0>         0.1065
     15 N1          4.2068    0.6905   -6.9729 N.2       1 <0>        -0.5549
     16 C14         3.2023    1.5375   -6.9136 C.2       1 <0>         0.2810
     17 S1          3.0270    3.0864   -7.7350 S.3       1 <0>        -0.7158
     18 S2          2.1244    0.7830   -5.8632 S.3       1 <0>         0.0692
     19 S3          5.5505   -1.6045   -6.2326 S.3       1 <0>         0.0426
     20 C15         4.8587   -3.0543   -5.4501 C.3       1 <0>        -0.1519
     21 H2          5.6834   -3.6223   -5.0194 H         1 <0>         0.1653
     22 C16         3.8640   -2.7665   -4.3192 C.3       1 <0>        -0.0767
     23 H3          4.3392   -2.4401   -3.3941 H         1 <0>         0.1575
     24 C17         3.2194   -4.1702   -4.2606 C.2       1 <0>         0.5329
     25 O1          2.7508   -4.7112   -3.2822 O.2       1 <0>        -0.4354
     26 N2          3.2789   -4.6762   -5.5099 N.am      1 <0>        -0.5318
     27 C18         4.0899   -3.9858   -6.3370 C.2       1 <0>         0.5453
     28 O2          4.1854   -4.1031   -7.5398 O.2       1 <0>        -0.4184
     29 C19         2.5527   -5.8052   -5.9144 C.ar      1 <0>         0.1807
     30 C20         1.7189   -6.4549   -5.0145 C.ar      1 <0>        -0.1438
     31 C21         1.0044   -7.5667   -5.4160 C.ar      1 <0>        -0.0297
     32 C22         1.1189   -8.0326   -6.7129 C.ar      1 <0>        -0.0660
     33 C23         1.9490   -7.3877   -7.6114 C.ar      1 <0>        -0.0284
     34 C24         2.6616   -6.2721   -7.2172 C.ar      1 <0>        -0.1428
     35 N3          0.3519   -9.2243   -7.1401 N.pl3     1 <0>         0.0374
     36 O3         -0.3739   -9.7892   -6.3554 O.2       1 <0>        -0.1606
     37 O4          0.4511   -9.6326   -8.2737 O.3       1 <0>        -0.1596
     38 H4          1.0039    1.9031    0.0027 H         1 <0>         0.0579
     39 H5         -0.5459    1.8868   -0.8726 H         1 <0>         0.0583
     40 H6         -0.5289    1.8773    0.9072 H         1 <0>         0.0563
     41 H7          0.2319   -0.1594    2.1383 H         1 <0>         0.0563
     42 H8          0.7568   -1.6008    1.2356 H         1 <0>         0.0558
     43 H9          1.7647   -0.1336    1.2338 H         1 <0>         0.0572
     44 H10        -1.9605   -0.1726   -0.8702 H         1 <0>         0.0592
     45 H11        -1.4185   -1.6235    0.0069 H         1 <0>         0.0578
     46 H12        -1.9435   -0.1821    0.9097 H         1 <0>         0.0564
     47 H13        -0.9938   -1.5568   -1.9713 H         1 <0>         0.1251
     48 H14         0.1588   -2.3512   -3.9970 H         1 <0>         0.1144
     49 H15         3.7024   -0.3141   -2.7796 H         1 <0>         0.1228
     50 H16         2.5473    0.4872   -0.7580 H         1 <0>         0.1211
     51 H17         1.6294   -6.0917   -4.0014 H         1 <0>         0.1755
     52 H18         0.3559   -8.0728   -4.7163 H         1 <0>         0.1610
     53 H19         2.0367   -7.7541   -8.6235 H         1 <0>         0.1618
     54 H20         3.3061   -5.7660   -7.9208 H         1 <0>         0.1763
@<TRIPOS>BOND
     1    1    2 1
     2    1   38 1
     3    1   39 1
     4    1   40 1
     5    2    3 1
     6    2    4 1
     7    2    5 1
     8    3   41 1
     9    3   42 1
    10    3   43 1
    11    4   44 1
    12    4   45 1
    13    4   46 1
    14    5   10 ar
    15    5    6 ar
    16    6    7 ar
    17    6   47 1
    18    7    8 ar
    19    7   48 1
    20    8    9 ar
    21    8   11 1
    22    9   10 ar
    23    9   49 1
    24   10   50 1
    25   11   12 1
    26   11   22 1
    27   11   13 1
    28   13   18 1
    29   13   14 2
    30   14   15 1
    31   14   19 1
    32   15   16 2
    33   16   17 1
    34   16   18 1
    35   19   20 1
    36   20   21 1
    37   20   27 1
    38   20   22 1
    39   22   23 1
    40   22   24 1
    41   24   25 2
    42   24   26 am
    43   26   27 am
    44   26   29 1
    45   27   28 2
    46   29   34 ar
    47   29   30 ar
    48   30   31 ar
    49   30   51 1
    50   31   32 ar
    51   31   52 1
    52   32   33 ar
    53   32   35 1
    54   33   34 ar
    55   33   53 1
    56   34   54 1
    57   35   36 2
    58   35   37 1
@<TRIPOS>MOLECULE
ZINC18097303
   55    59     0     0     0
SMALL
USER_CHARGES

@<TRIPOS>ATOM
      1 C1          1.3257   -6.4919    3.4473 C.3       1 <0>        -0.0982
      2 C2          1.0689   -5.4329    2.4064 C.ar      1 <0>         0.1968
      3 C3          1.3788   -5.6672    1.0758 C.ar      1 <0>        -0.2878
      4 C4          1.1260   -4.6663    0.1507 C.ar      1 <0>         0.1960
      5 N1          0.6000   -3.5248    0.5630 N.ar      1 <0>        -0.5691
      6 C5          0.3157   -3.3332    1.8421 C.ar      1 <0>         0.5541
      7 N2          0.5400   -4.2704    2.7504 N.ar      1 <0>        -0.4745
      8 N3         -0.2357   -2.1225    2.2395 N.pl3     1 <0>        -0.6240
      9 C6         -0.4356   -1.8652    3.5688 C.2       1 <0>         0.6595
     10 N4          0.0205   -2.7432    4.5105 N.2       1 <0>        -0.6166
     11 C7          0.6443   -2.2656    5.6685 C.ar      1 <0>         0.2299
     12 C8          0.9653   -0.9191    5.7808 C.ar      1 <0>        -0.1872
     13 C9          1.5810   -0.4504    6.9247 C.ar      1 <0>        -0.0754
     14 C10         1.8785   -1.3213    7.9583 C.ar      1 <0>        -0.1190
     15 C11         1.5597   -2.6635    7.8489 C.ar      1 <0>        -0.0804
     16 C12         0.9383   -3.1363    6.7097 C.ar      1 <0>        -0.1670
     17 Cl1         2.6534   -0.7290    9.3944 Cl        1 <0>        -0.1187
     18 N5         -1.0701   -0.7665    3.9415 N.2       1 <0>        -0.6990
     19 C13        -1.6882   -0.0061    3.0261 C.2       1 <0>         0.6707
     20 O1         -1.7602   -0.3825    1.8696 O.2       1 <0>        -0.6243
     21 N6         -2.2298    1.1746    3.3855 N.am      1 <0>        -0.5041
     22 C14        -2.0462    1.6377    4.6944 C.ar      1 <0>         0.1687
     23 C15        -2.0597    0.7499    5.7589 C.ar      1 <0>        -0.0728
     24 C16        -1.8794    1.2150    7.0493 C.ar      1 <0>        -0.0920
     25 C17        -1.6850    2.5625    7.2874 C.ar      1 <0>        -0.1256
     26 C18        -1.6698    3.4586    6.2318 C.ar      1 <0>        -0.0815
     27 C19        -1.8492    2.9988    4.9404 C.ar      1 <0>        -0.1376
     28 S1         -1.8345    4.1165    3.5736 S.3       1 <0>        -0.0098
     29 C20        -2.8766    3.2989    2.4059 C.ar      1 <0>        -0.1326
     30 C21        -2.9558    1.9072    2.4380 C.ar      1 <0>         0.1775
     31 C22        -3.7673    1.2559    1.5222 C.ar      1 <0>        -0.0997
     32 C23        -4.4830    1.9865    0.5904 C.ar      1 <0>        -0.0981
     33 C24        -4.3952    3.3656    0.5643 C.ar      1 <0>        -0.1292
     34 C25        -3.5986    4.0219    1.4748 C.ar      1 <0>        -0.0754
     35 C26         1.4471   -4.8759   -1.3067 C.3       1 <0>        -0.1002
     36 H1          0.4178   -7.0740    3.6050 H         1 <0>         0.0782
     37 H2          2.1247   -7.1503    3.1063 H         1 <0>         0.0702
     38 H3          1.6204   -6.0175    4.3833 H         1 <0>         0.0848
     39 H4          1.8080   -6.6088    0.7667 H         1 <0>         0.1344
     40 H5          0.7339   -0.2392    4.9742 H         1 <0>         0.1241
     41 H6          1.8308    0.5966    7.0126 H         1 <0>         0.1059
     42 H7          1.7932   -3.3410    8.6568 H         1 <0>         0.1113
     43 H8          0.6854   -4.1830    6.6268 H         1 <0>         0.1155
     44 H9         -2.2112   -0.3045    5.5810 H         1 <0>         0.1578
     45 H10        -1.8911    0.5205    7.8763 H         1 <0>         0.1265
     46 H11        -1.5451    2.9171    8.2980 H         1 <0>         0.1249
     47 H12        -1.5186    4.5119    6.4164 H         1 <0>         0.1275
     48 H13        -3.8411    0.1785    1.5362 H         1 <0>         0.1372
     49 H14        -5.1142    1.4757   -0.1217 H         1 <0>         0.1268
     50 H15        -4.9573    3.9281   -0.1665 H         1 <0>         0.1275
     51 H16        -3.5308    5.0996    1.4536 H         1 <0>         0.1309
     52 H17         0.5818   -5.3059   -1.8111 H         1 <0>         0.0790
     53 H18         1.6964   -3.9189   -1.7651 H         1 <0>         0.0768
     54 H19         2.2952   -5.5544   -1.3980 H         1 <0>         0.0761
     55 H20        -0.4794   -1.4592    1.5751 H         1 <0>         0.4311
@<TRIPOS>BOND
     1    1    2 1
     2    1   36 1
     3    1   37 1
     4    1   38 1
     5    2    7 ar
     6    2    3 ar
     7    3    4 ar
     8    3   39 1
     9    4    5 ar
    10    4   35 1
    11    5    6 ar
    12    6    7 ar
    13    6    8 1
    14    8    9 1
    15    8   55 1
    16    9   10 1
    17    9   18 2
    18   10   11 1
    19   11   16 ar
    20   11   12 ar
    21   12   13 ar
    22   12   40 1
    23   13   14 ar
    24   13   41 1
    25   14   15 ar
    26   14   17 1
    27   15   16 ar
    28   15   42 1
    29   16   43 1
    30   18   19 1
    31   19   20 2
    32   19   21 am
    33   21   30 1
    34   21   22 1
    35   22   27 ar
    36   22   23 ar
    37   23   24 ar
    38   23   44 1
    39   24   25 ar
    40   24   45 1
    41   25   26 ar
    42   25   46 1
    43   26   27 ar
    44   26   47 1
    45   27   28 1
    46   28   29 1
    47   29   34 ar
    48   29   30 ar
    49   30   31 ar
    50   31   32 ar
    51   31   48 1
    52   32   33 ar
    53   32   49 1
    54   33   34 ar
    55   33   50 1
    56   34   51 1
    57   35   52 1
    58   35   53 1
    59   35   54 1
@<TRIPOS>MOLECULE
ZINC20417678
   55    58     0     0     0
SMALL
USER_CHARGES
2-chloro-5-[3-[(Z)-[1-(2,3-dimethylphenyl)-4,6-dioxo-2-thioxo-hexahydropyrimidin-5-ylidene]methyl]-2,5-dimethyl-pyrrol-1-yl]benzoic acid
@<TRIPOS>ATOM
      1 C1         -6.8311    9.5072    5.6947 C.3       1 <0>        -0.1057
      2 C2         -7.1131    8.6616    4.4796 C.ar      1 <0>        -0.0876
      3 C3         -7.8550    7.5009    4.6027 C.ar      1 <0>        -0.1171
      4 C4         -8.1154    6.7222    3.4903 C.ar      1 <0>        -0.1156
      5 C5         -7.6394    7.1044    2.2511 C.ar      1 <0>        -0.0916
      6 C6         -6.8899    8.2662    2.1252 C.ar      1 <0>         0.1718
      7 C7         -6.6300    9.0462    3.2444 C.ar      1 <0>        -0.0549
      8 C8         -5.8213   10.3109    3.1112 C.3       1 <0>        -0.1059
      9 N1         -6.4016    8.6540    0.8706 N.am      1 <0>        -0.5108
     10 C9         -5.1870    8.2214    0.4739 C.2       1 <0>         0.5507
     11 O1         -4.5151    7.5027    1.1896 O.2       1 <0>        -0.4765
     12 C10        -4.6934    8.6480   -0.8484 C.2       1 <0>        -0.3068
     13 C11        -3.4542    8.2485   -1.3209 C.2       1 <0>         0.1212
     14 C12        -2.5501    7.5813   -0.4602 C.2       1 <0>        -0.1927
     15 C13        -2.2177    7.9400    0.9268 C.2       1 <0>        -0.0952
     16 C14        -1.3254    7.0305    1.3504 C.2       1 <0>         0.0074
     17 N2         -1.0706    6.1441    0.3401 N.pl3     1 <0>        -0.3847
     18 C15        -1.7959    6.4540   -0.7510 C.2       1 <0>         0.0833
     19 C16        -1.7894    5.7067   -2.0597 C.3       1 <0>        -0.0950
     20 C17        -0.1839    5.0620    0.4303 C.ar      1 <0>         0.0931
     21 C18         0.9568    5.0309   -0.3636 C.ar      1 <0>        -0.1033
     22 C19         1.8345    3.9671   -0.2799 C.ar      1 <0>        -0.1221
     23 C20         1.5845    2.9266    0.5943 C.ar      1 <0>        -0.0007
     24 C21         0.4405    2.9492    1.3968 C.ar      1 <0>        -0.0972
     25 C22        -0.4478    4.0222    1.3064 C.ar      1 <0>        -0.0508
     26 C23         0.1694    1.8394    2.3324 C.2       1 <0>         0.4865
     27 O2          0.9414    0.9044    2.4056 O.co2     1 <0>        -0.6047
     28 O3         -0.9341    1.8639    3.1048 O.co2     1 <0>        -0.7458
     29 Cl1         2.6902    1.5921    0.6952 Cl        1 <0>        -0.0421
     30 C24        -0.7008    6.9939    2.7214 C.3       1 <0>        -0.0852
     31 C25        -5.5797    9.5139   -1.6483 C.2       1 <0>         0.5352
     32 O4         -5.2445    9.9024   -2.7514 O.3       1 <0>        -0.5331
     33 N3         -6.7725    9.8629   -1.1237 N.2       1 <0>        -0.6336
     34 C26        -7.1547    9.4413    0.0898 C.2       1 <0>         0.5537
     35 S1         -8.6863    9.9351    0.6740 S.2       1 <0>        -0.7085
     36 H1         -7.2932    9.0440    6.5790 H         1 <0>         0.0601
     37 H2         -7.2503   10.5133    5.5465 H         1 <0>         0.0663
     38 H3         -5.7440    9.5814    5.8455 H         1 <0>         0.0647
     39 H4         -8.2320    7.2024    5.5697 H         1 <0>         0.1171
     40 H5         -8.6950    5.8164    3.5896 H         1 <0>         0.1200
     41 H6         -7.8466    6.4979    1.3819 H         1 <0>         0.1149
     42 H7         -5.5272   10.4491    2.0603 H         1 <0>         0.0550
     43 H8         -4.9200   10.2375    3.7376 H         1 <0>         0.0640
     44 H9         -6.4264   11.1692    3.4385 H         1 <0>         0.0716
     45 H10        -3.1727    8.4498   -2.3651 H         1 <0>         0.1410
     46 H11        -2.6154    8.7688    1.4936 H         1 <0>         0.1353
     47 H12        -1.0943    4.8567   -1.9931 H         1 <0>         0.0699
     48 H13        -1.4667    6.3819   -2.8659 H         1 <0>         0.0814
     49 H14        -2.8024    5.3360   -2.2753 H         1 <0>         0.0805
     50 H15         1.1576    5.8412   -1.0487 H         1 <0>         0.1313
     51 H16         2.7189    3.9489   -0.8994 H         1 <0>         0.1348
     52 H17        -1.3359    4.0435    1.9206 H         1 <0>         0.1459
     53 H18        -0.0088    6.1413    2.7864 H         1 <0>         0.0643
     54 H19        -1.4892    6.8849    3.4807 H         1 <0>         0.0769
     55 H20        -0.1485    7.9287    2.8978 H         1 <0>         0.0693
@<TRIPOS>BOND
     1    1    2 1
     2    1   36 1
     3    1   37 1
     4    1   38 1
     5    2    7 ar
     6    2    3 ar
     7    3    4 ar
     8    3   39 1
     9    4    5 ar
    10    4   40 1
    11    5    6 ar
    12    5   41 1
    13    6    7 ar
    14    6    9 1
    15    7    8 1
    16    8   42 1
    17    8   43 1
    18    8   44 1
    19    9   34 1
    20    9   10 am
    21   10   11 2
    22   10   12 1
    23   12   13 2
    24   12   31 1
    25   13   14 1
    26   13   45 1
    27   14   18 2
    28   14   15 1
    29   15   16 2
    30   15   46 1
    31   16   17 1
    32   16   30 1
    33   17   18 1
    34   17   20 1
    35   18   19 1
    36   19   47 1
    37   19   48 1
    38   19   49 1
    39   20   25 ar
    40   20   21 ar
    41   21   22 ar
    42   21   50 1
    43   22   23 ar
    44   22   51 1
    45   23   24 ar
    46   23   29 1
    47   24   25 ar
    48   24   26 1
    49   25   52 1
    50   26   27 2
    51   26   28 1
    52   30   53 1
    53   30   54 1
    54   30   55 1
    55   31   32 1
    56   31   33 2
    57   33   34 1
    58   34   35 2
@<TRIPOS>MOLECULE
ZINC13193840
   42    45     0     0     0
SMALL
USER_CHARGES

@<TRIPOS>ATOM
      1 C1          1.1910   -0.7536   -3.4952 C.ar      1 <0>        -0.1345
      2 C2          2.3849   -0.0529   -3.5222 C.ar      1 <0>        -0.0988
      3 C3          3.2108   -0.0376   -2.4130 C.ar      1 <0>        -0.1335
      4 C4          2.8492   -0.7228   -1.2696 C.ar      1 <0>         0.0020
      5 C5          1.6452   -1.4321   -1.2361 C.ar      1 <0>        -0.1256
      6 C6          0.8166   -1.4419   -2.3608 C.ar      1 <0>        -0.0524
      7 C7          1.2508   -2.1684   -0.0169 C.2       1 <0>         0.4994
      8 O1          2.0072   -2.2186    0.9349 O.2       1 <0>        -0.4471
      9 C8         -0.0514   -2.8381    0.0458 C.2       1 <0>        -0.5022
     10 C9         -0.2706   -4.1720    0.1250 C.2       1 <0>         0.2766
     11 C10        -1.7260   -4.4229    0.1670 C.2       1 <0>         0.5180
     12 O2         -2.2426   -5.5205    0.2390 O.2       1 <0>        -0.5187
     13 N1         -2.3950   -3.2568    0.1143 N.am      1 <0>        -0.5685
     14 C11        -1.4080   -2.1731    0.0411 C.3       1 <0>         0.3103
     15 H1         -1.5445   -1.6066   -0.8801 H         1 <0>         0.0830
     16 C12        -1.5433   -1.2632    1.2347 C.2       1 <0>        -0.1204
     17 C13        -1.5277    0.0914    1.2816 C.2       1 <0>        -0.1755
     18 C14        -1.6716    0.7216    2.5034 C.2       1 <0>        -0.1553
     19 C15        -1.8241   -0.0337    3.6186 C.2       1 <0>        -0.1979
     20 S1         -1.7734   -1.6895    2.9530 S.3       1 <0>         0.0856
     21 C16        -3.7849   -3.1041    0.1323 C.ar      1 <0>         0.1491
     22 C17        -4.4499   -2.9549    1.3387 C.ar      1 <0>        -0.0626
     23 C18        -5.8381   -2.8027    1.3512 C.ar      1 <0>        -0.1248
     24 C19        -6.5473   -2.8020    0.1465 C.ar      1 <0>        -0.0754
     25 C20        -5.8761   -2.9511   -1.0488 C.ar      1 <0>        -0.1278
     26 C21        -4.4997   -3.0962   -1.0617 C.ar      1 <0>        -0.0322
     27 Cl1        -3.6628   -3.2756   -2.5721 Cl        1 <0>        -0.0815
     28 C22        -6.5536   -2.6439    2.6310 C.2       1 <0>         0.5247
     29 O3         -5.9312   -2.6452    3.6838 O.co2     1 <0>        -0.6768
     30 O4         -7.7693   -2.5108    2.6395 O.co2     1 <0>        -0.6916
     31 O5          0.6902   -5.1236    0.1596 O.3       1 <0>        -0.6518
     32 Cl2         3.8872   -0.7038    0.1217 Cl        1 <0>        -0.0474
     33 H2          0.5491   -0.7573   -4.3637 H         1 <0>         0.1274
     34 H3          2.6727    0.4840   -4.4139 H         1 <0>         0.1260
     35 H4          4.1406    0.5111   -2.4411 H         1 <0>         0.1286
     36 H5         -0.1152   -1.9876   -2.3417 H         1 <0>         0.1435
     37 H6         -1.4042    0.6697    0.3778 H         1 <0>         0.1230
     38 H7         -1.6623    1.7996    2.5685 H         1 <0>         0.1213
     39 H8         -1.9482    0.2839    4.6433 H         1 <0>         0.1765
     40 H9         -3.8967   -2.9566    2.2663 H         1 <0>         0.1440
     41 H10        -7.6209   -2.6849    0.1520 H         1 <0>         0.1357
     42 H11        -6.4259   -2.9506   -1.9784 H         1 <0>         0.1274
@<TRIPOS>BOND
     1    1    6 ar
     2    1    2 ar
     3    1   33 1
     4    2    3 ar
     5    2   34 1
     6    3    4 ar
     7    3   35 1
     8    4    5 ar
     9    4   32 1
    10    5    6 ar
    11    5    7 1
    12    6   36 1
    13    7    8 2
    14    7    9 1
    15    9   14 1
    16    9   10 2
    17   10   11 1
    18   10   31 1
    19   11   12 2
    20   11   13 am
    21   13   14 1
    22   13   21 1
    23   14   15 1
    24   14   16 1
    25   16   20 1
    26   16   17 2
    27   17   18 1
    28   17   37 1
    29   18   19 2
    30   18   38 1
    31   19   20 1
    32   19   39 1
    33   21   26 ar
    34   21   22 ar
    35   22   23 ar
    36   22   40 1
    37   23   24 ar
    38   23   28 1
    39   24   25 ar
    40   24   41 1
    41   25   26 ar
    42   25   42 1
    43   26   27 1
    44   28   29 2
    45   28   30 1
@<TRIPOS>MOLECULE
ZINC13215325
   51    54     0     0     0
SMALL
USER_CHARGES

@<TRIPOS>ATOM
      1 C1         -4.9929   -2.7892    1.3434 C.3       1 <0>        -0.1106
      2 C2         -3.6172   -3.1343    0.8341 C.ar      1 <0>        -0.0742
      3 C3         -3.4482   -3.5257   -0.4827 C.ar      1 <0>        -0.1434
      4 C4         -2.1921   -3.8429   -0.9554 C.ar      1 <0>        -0.0542
      5 C5         -1.0889   -3.7680   -0.1020 C.ar      1 <0>        -0.1462
      6 C6         -1.2665   -3.3720    1.2251 C.ar      1 <0>        -0.0361
      7 C7         -2.5279   -3.0529    1.6835 C.ar      1 <0>        -0.1443
      8 C8         -0.0822   -3.2887    2.1533 C.3       1 <0>        -0.1202
      9 C9          0.2608   -4.1071   -0.6016 C.2       1 <0>         0.5093
     10 O1          1.2236   -4.0154    0.1367 O.2       1 <0>        -0.4668
     11 C10         0.4389   -4.5536   -1.9860 C.2       1 <0>        -0.5095
     12 C11         0.8243   -5.7860   -2.3940 C.2       1 <0>         0.2743
     13 C12         0.8778   -5.8137   -3.8704 C.2       1 <0>         0.5136
     14 O2          1.1903   -6.7791   -4.5388 O.2       1 <0>        -0.5234
     15 N1          0.5292   -4.6122   -4.3653 N.am      1 <0>        -0.5616
     16 C13         0.2217   -3.7297   -3.2337 C.3       1 <0>         0.3004
     17 H1         -0.8147   -3.3961   -3.2869 H         1 <0>         0.0858
     18 C14         1.1499   -2.5425   -3.2389 C.2       1 <0>        -0.1102
     19 C15         0.9436   -1.2999   -3.7397 C.2       1 <0>        -0.1701
     20 C16         1.9489   -0.3576   -3.6299 C.2       1 <0>        -0.1478
     21 C17         3.1113   -0.7039   -3.0248 C.2       1 <0>        -0.2182
     22 S1          2.8034   -2.4053   -2.5800 S.3       1 <0>         0.0851
     23 C18         0.4667   -4.2668   -5.7185 C.ar      1 <0>         0.1383
     24 C19        -0.7588   -4.2153   -6.3649 C.ar      1 <0>        -0.0732
     25 C20        -0.8154   -3.8698   -7.7162 C.ar      1 <0>        -0.1367
     26 C21         0.3637   -3.5783   -8.4076 C.ar      1 <0>        -0.0823
     27 C22         1.5775   -3.6326   -7.7543 C.ar      1 <0>        -0.1364
     28 C23         1.6328   -3.9693   -6.4144 C.ar      1 <0>        -0.0774
     29 C24         2.9627   -4.0201   -5.7074 C.3       1 <0>        -0.1153
     30 C25        -2.1153   -3.8131   -8.4121 C.2       1 <0>         0.5254
     31 O3         -3.1456   -4.0690   -7.8051 O.co2     1 <0>        -0.6877
     32 O4         -2.1623   -3.5102   -9.5960 O.co2     1 <0>        -0.6945
     33 O5          1.1147   -6.8262   -1.5795 O.3       1 <0>        -0.6553
     34 H2         -5.1816   -1.7269    1.1890 H         1 <0>         0.0668
     35 H3         -5.7376   -3.3730    0.8023 H         1 <0>         0.0648
     36 H4         -5.0545   -3.0183    2.4073 H         1 <0>         0.0611
     37 H5         -4.3021   -3.5832   -1.1415 H         1 <0>         0.1224
     38 H6         -2.0618   -4.1489   -1.9829 H         1 <0>         0.1356
     39 H7         -2.6661   -2.7428    2.7087 H         1 <0>         0.1165
     40 H8          0.4264   -2.3355    2.0089 H         1 <0>         0.0682
     41 H9         -0.4235   -3.3657    3.1856 H         1 <0>         0.0474
     42 H10         0.6072   -4.1048    1.9368 H         1 <0>         0.0994
     43 H11         0.0080   -1.0499   -4.2176 H         1 <0>         0.1279
     44 H12         1.8105    0.6396   -4.0208 H         1 <0>         0.1209
     45 H13         3.9933   -0.1049   -2.8526 H         1 <0>         0.1736
     46 H14        -1.6663   -4.4421   -5.8250 H         1 <0>         0.1276
     47 H15         0.3246   -3.3109   -9.4532 H         1 <0>         0.1242
     48 H16         2.4876   -3.4073   -8.2905 H         1 <0>         0.1139
     49 H17         3.4129   -5.0025   -5.8503 H         1 <0>         0.0627
     50 H18         3.6219   -3.2552   -6.1179 H         1 <0>         0.0560
     51 H19         2.8153   -3.8394   -4.6427 H         1 <0>         0.0744
@<TRIPOS>BOND
     1    1    2 1
     2    1   34 1
     3    1   35 1
     4    1   36 1
     5    2    7 ar
     6    2    3 ar
     7    3    4 ar
     8    3   37 1
     9    4    5 ar
    10    4   38 1
    11    5    6 ar
    12    5    9 1
    13    6    7 ar
    14    6    8 1
    15    7   39 1
    16    8   40 1
    17    8   41 1
    18    8   42 1
    19    9   10 2
    20    9   11 1
    21   11   16 1
    22   11   12 2
    23   12   13 1
    24   12   33 1
    25   13   14 2
    26   13   15 am
    27   15   16 1
    28   15   23 1
    29   16   17 1
    30   16   18 1
    31   18   22 1
    32   18   19 2
    33   19   20 1
    34   19   43 1
    35   20   21 2
    36   20   44 1
    37   21   22 1
    38   21   45 1
    39   23   28 ar
    40   23   24 ar
    41   24   25 ar
    42   24   46 1
    43   25   26 ar
    44   25   30 1
    45   26   27 ar
    46   26   47 1
    47   27   28 ar
    48   27   48 1
    49   28   29 1
    50   29   49 1
    51   29   50 1
    52   29   51 1
    53   30   31 2
    54   30   32 1
@<TRIPOS>MOLECULE
ZINC05268008
   59    61     0     0     0
SMALL
USER_CHARGES

@<TRIPOS>ATOM
      1 C1         -7.3288   -6.9315   -0.0724 C.3       1 <0>        -0.1475
      2 C2         -5.9377   -7.1135   -0.6829 C.3       1 <0>        -0.1271
      3 C3         -4.8994   -6.4134    0.1960 C.3       1 <0>        -0.1110
      4 C4         -3.5083   -6.5954   -0.4145 C.3       1 <0>        -0.0684
      5 C5         -3.4386   -5.8652   -1.7589 C.3       1 <0>        -0.1421
      6 C6         -2.0456   -5.9861   -2.3189 C.2       1 <0>         0.4134
      7 O1         -1.8793   -5.9781   -3.5305 O.3       1 <0>        -0.5933
      8 C7         -0.9569   -6.1050   -1.4842 C.2       1 <0>        -0.4522
      9 C8         -1.0956   -6.1205   -0.1143 C.2       1 <0>         0.3554
     10 O2         -0.1029   -6.2295    0.5918 O.2       1 <0>        -0.6350
     11 C9         -2.4540   -6.0040    0.5258 C.3       1 <0>        -0.1384
     12 C10         0.4203   -6.2215   -2.0848 C.3       1 <0>         0.1583
     13 C11         0.4705   -7.4194   -2.9978 C.ar      1 <0>         0.0338
     14 C12        -0.0721   -7.3440   -4.2670 C.ar      1 <0>        -0.0529
     15 C13        -0.0264   -8.4424   -5.1048 C.ar      1 <0>        -0.1428
     16 C14         0.5626   -9.6174   -4.6729 C.ar      1 <0>        -0.0682
     17 C15         1.1055   -9.6922   -3.4026 C.ar      1 <0>        -0.1340
     18 C16         1.0642   -8.5915   -2.5677 C.ar      1 <0>        -0.1267
     19 Cl1         0.6199  -10.9975   -5.7244 Cl        1 <0>        -0.1350
     20 C17         0.7315   -4.9755   -2.8733 C.2       1 <0>        -0.5031
     21 C18        -0.0841   -3.8743   -2.7385 C.2       1 <0>         0.3862
     22 O3         -1.0463   -3.9243   -1.9853 O.3       1 <0>        -0.5550
     23 C19         0.1933   -2.6090   -3.5070 C.3       1 <0>        -0.1521
     24 C20         0.8910   -2.9601   -4.8244 C.3       1 <0>        -0.0667
     25 C21         2.1718   -3.7405   -4.5141 C.3       1 <0>        -0.1438
     26 C22         1.8278   -4.9645   -3.7067 C.2       1 <0>         0.3551
     27 O4          2.5284   -5.9629   -3.7956 O.2       1 <0>        -0.6087
     28 C23         1.2434   -1.6750   -5.5762 C.3       1 <0>        -0.1112
     29 C24         1.8265   -2.0288   -6.9457 C.3       1 <0>        -0.1275
     30 C25         2.1789   -0.7436   -7.6975 C.3       1 <0>        -0.1476
     31 H1         -7.3465   -7.3659    0.9272 H         1 <0>         0.0474
     32 H2         -7.5622   -5.8686   -0.0108 H         1 <0>         0.0493
     33 H3         -8.0685   -7.4303   -0.6986 H         1 <0>         0.0452
     34 H4         -5.7042   -8.1765   -0.7445 H         1 <0>         0.0571
     35 H5         -5.9199   -6.6791   -1.6824 H         1 <0>         0.0654
     36 H6         -5.1329   -5.3505    0.2576 H         1 <0>         0.0546
     37 H7         -4.9172   -6.8478    1.1956 H         1 <0>         0.0499
     38 H8         -3.3108   -7.6571   -0.5629 H         1 <0>         0.0588
     39 H9         -4.1500   -6.3123   -2.4533 H         1 <0>         0.0455
     40 H10        -3.6826   -4.8127   -1.6145 H         1 <0>         0.0627
     41 H11        -2.6801   -4.9541    0.7118 H         1 <0>         0.0584
     42 H12        -2.4598   -6.5506    1.4688 H         1 <0>         0.0439
     43 H13         1.1551   -6.3405   -1.2885 H         1 <0>         0.0289
     44 H14        -0.5322   -6.4268   -4.6038 H         1 <0>         0.1641
     45 H15        -0.4507   -8.3835   -6.0962 H         1 <0>         0.1018
     46 H16         1.5652  -10.6093   -3.0648 H         1 <0>         0.1024
     47 H17         1.4922   -8.6482   -1.5778 H         1 <0>         0.1078
     48 H18        -0.7460   -2.0978   -3.7177 H         1 <0>         0.0497
     49 H19         0.8378   -1.9582   -2.9161 H         1 <0>         0.0531
     50 H20         0.2291   -3.5732   -5.4361 H         1 <0>         0.0664
     51 H21         2.6502   -4.0402   -5.4465 H         1 <0>         0.0526
     52 H22         2.8522   -3.1103   -3.9415 H         1 <0>         0.0537
     53 H23         0.3442   -1.0733   -5.7086 H         1 <0>         0.0513
     54 H24         1.9782   -1.1090   -5.0036 H         1 <0>         0.0527
     55 H25         2.7257   -2.6304   -6.8133 H         1 <0>         0.0645
     56 H26         1.0917   -2.5948   -7.5183 H         1 <0>         0.0588
     57 H27         2.9137   -0.1776   -7.1249 H         1 <0>         0.0487
     58 H28         2.5943   -0.9957   -8.6732 H         1 <0>         0.0455
     59 H29         1.2796   -0.1420   -7.8299 H         1 <0>         0.0479
@<TRIPOS>BOND
     1    1    2 1
     2    1   31 1
     3    1   32 1
     4    1   33 1
     5    2    3 1
     6    2   34 1
     7    2   35 1
     8    3    4 1
     9    3   36 1
    10    3   37 1
    11    4   11 1
    12    4    5 1
    13    4   38 1
    14    5    6 1
    15    5   39 1
    16    5   40 1
    17    6    7 1
    18    6    8 2
    19    8    9 1
    20    8   12 1
    21    9   10 2
    22    9   11 1
    23   11   41 1
    24   11   42 1
    25   12   13 1
    26   12   20 1
    27   12   43 1
    28   13   18 ar
    29   13   14 ar
    30   14   15 ar
    31   14   44 1
    32   15   16 ar
    33   15   45 1
    34   16   17 ar
    35   16   19 1
    36   17   18 ar
    37   17   46 1
    38   18   47 1
    39   20   26 1
    40   20   21 2
    41   21   22 1
    42   21   23 1
    43   23   24 1
    44   23   48 1
    45   23   49 1
    46   24   25 1
    47   24   28 1
    48   24   50 1
    49   25   26 1
    50   25   51 1
    51   25   52 1
    52   26   27 2
    53   28   29 1
    54   28   53 1
    55   28   54 1
    56   29   30 1
    57   29   55 1
    58   29   56 1
    59   30   57 1
    60   30   58 1
    61   30   59 1
@<TRIPOS>MOLECULE
ZINC40476461
   57    60     0     0     0
SMALL
USER_CHARGES

@<TRIPOS>ATOM
      1 C1         -0.0187    1.5258    0.0104 C.3       1 <0>        -0.1486
      2 C2          0.0021   -0.0041    0.0020 C.3       1 <0>        -0.0797
      3 C3         -1.4333   -0.5336    0.0129 C.3       1 <0>        -0.1399
      4 C4          0.7182   -0.4975   -1.2568 C.3       1 <0>        -0.0868
      5 S1          2.4600    0.0058   -1.1981 S.3       1 <0>        -0.0783
      6 C5          3.1377   -0.6285   -2.6958 C.ar      1 <0>         0.3360
      7 N1          2.3442   -1.2903   -3.5266 N.ar      1 <0>        -0.6349
      8 C6          2.8178   -1.7859   -4.6697 C.ar      1 <0>         0.4577
      9 O1          2.0069   -2.4624   -5.5195 O.3       1 <0>        -0.7053
     10 C7          4.1516   -1.5952   -4.9698 C.ar      1 <0>        -0.3514
     11 C8          4.9705   -0.8934   -4.0789 C.ar      1 <0>         0.4049
     12 N2          4.4196   -0.4226   -2.9538 N.ar      1 <0>        -0.5854
     13 N3          6.2809   -0.6900   -4.3460 N.2       1 <0>        -0.6092
     14 C9          6.9092   -1.1044   -5.4139 C.2       1 <0>         0.2988
     15 C10         6.2486   -1.8309   -6.4255 C.2       1 <0>        -0.4283
     16 C11         4.7698   -2.1241   -6.2426 C.3       1 <0>         0.1302
     17 H1          4.2301   -1.6965   -7.0875 H         1 <0>         0.0405
     18 C12         4.5770   -3.6184   -6.2754 C.ar      1 <0>         0.0185
     19 C13         5.1050   -4.4048   -5.2679 C.ar      1 <0>        -0.0537
     20 C14         4.9297   -5.7746   -5.2957 C.ar      1 <0>        -0.1570
     21 C15         4.2228   -6.3613   -6.3355 C.ar      1 <0>         0.1291
     22 C16         3.6938   -5.5702   -7.3447 C.ar      1 <0>        -0.0828
     23 C17         3.8678   -4.2000   -7.3098 C.ar      1 <0>         0.0235
     24 N4          2.9397   -6.1930   -8.4556 N.pl3     1 <0>         0.0544
     25 O2          2.4789   -5.5030   -9.3349 O.2       1 <0>        -0.1865
     26 O3          2.7845   -7.3916   -8.4837 O.3       1 <0>        -0.1781
     27 O4          4.0493   -7.7089   -6.3654 O.3       1 <0>        -0.4820
     28 C18         6.8815   -2.2617   -7.5260 C.2       1 <0>         0.3091
     29 O5          6.1916   -2.9516   -8.4572 O.3       1 <0>        -0.6723
     30 C19         8.3462   -1.9908   -7.7439 C.3       1 <0>        -0.1105
     31 C20         8.7263   -0.6809   -7.0473 C.3       1 <0>        -0.0565
     32 C21         8.3813   -0.7934   -5.5601 C.3       1 <0>        -0.0594
     33 C22         7.9425    0.4766   -7.6693 C.3       1 <0>        -0.1402
     34 C23        10.2273   -0.4317   -7.2079 C.3       1 <0>        -0.1342
     35 H2          1.0039    1.9031    0.0027 H         1 <0>         0.0664
     36 H3         -0.5459    1.8868   -0.8726 H         1 <0>         0.0549
     37 H4         -0.5289    1.8773    0.9072 H         1 <0>         0.0488
     38 H5          0.5293   -0.3651    0.8851 H         1 <0>         0.0742
     39 H6         -1.9605   -0.1726   -0.8702 H         1 <0>         0.0559
     40 H7         -1.4185   -1.6235    0.0069 H         1 <0>         0.0553
     41 H8         -1.9435   -0.1821    0.9097 H         1 <0>         0.0527
     42 H9          0.6556   -1.5845   -1.3079 H         1 <0>         0.0844
     43 H10         0.2444   -0.0644   -2.1377 H         1 <0>         0.0853
     44 H11         5.6551   -3.9476   -4.4588 H         1 <0>         0.1251
     45 H12         5.3428   -6.3884   -4.5090 H         1 <0>         0.1330
     46 H13         3.4530   -3.5833   -8.0933 H         1 <0>         0.1407
     47 H14         3.2502   -8.0127   -5.9136 H         1 <0>         0.3851
     48 H15         8.9337   -2.8087   -7.3268 H         1 <0>         0.0681
     49 H16         8.5457   -1.9062   -8.8122 H         1 <0>         0.0657
     50 H17         8.6053    0.1501   -5.0623 H         1 <0>         0.0745
     51 H18         8.9690   -1.5928   -5.1088 H         1 <0>         0.0724
     52 H19         6.8740    0.2984   -7.5481 H         1 <0>         0.0710
     53 H20         8.2142    1.4079   -7.1723 H         1 <0>         0.0465
     54 H21         8.1808    0.5480   -8.7305 H         1 <0>         0.0451
     55 H22        10.4728   -0.3631   -8.2677 H         1 <0>         0.0504
     56 H23        10.4959    0.5008   -6.7116 H         1 <0>         0.0516
     57 H24        10.7824   -1.2553   -6.7589 H         1 <0>         0.0510
@<TRIPOS>BOND
     1    1    2 1
     2    1   35 1
     3    1   36 1
     4    1   37 1
     5    2    3 1
     6    2    4 1
     7    2   38 1
     8    3   39 1
     9    3   40 1
    10    3   41 1
    11    4    5 1
    12    4   42 1
    13    4   43 1
    14    5    6 1
    15    6   12 ar
    16    6    7 ar
    17    7    8 ar
    18    8    9 1
    19    8   10 ar
    20   10   16 1
    21   10   11 ar
    22   11   12 ar
    23   11   13 1
    24   13   14 2
    25   14   32 1
    26   14   15 1
    27   15   16 1
    28   15   28 2
    29   16   17 1
    30   16   18 1
    31   18   23 ar
    32   18   19 ar
    33   19   20 ar
    34   19   44 1
    35   20   21 ar
    36   20   45 1
    37   21   22 ar
    38   21   27 1
    39   22   23 ar
    40   22   24 1
    41   23   46 1
    42   24   25 2
    43   24   26 1
    44   27   47 1
    45   28   29 1
    46   28   30 1
    47   30   31 1
    48   30   48 1
    49   30   49 1
    50   31   32 1
    51   31   33 1
    52   31   34 1
    53   32   50 1
    54   32   51 1
    55   33   52 1
    56   33   53 1
    57   33   54 1
    58   34   55 1
    59   34   56 1
    60   34   57 1
@<TRIPOS>MOLECULE
ZINC13401395
   44    46     0     0     0
SMALL
USER_CHARGES
2-[[2-[[5-[[2-(trifluoromethyl)phenyl]amino]-1,3,4-thiadiazol-2-yl]sulfanyl]acetyl]amino]terephthalic acid
@<TRIPOS>ATOM
      1 C1         10.2682    4.8423   -0.1612 C.ar      1 <0>        -0.1519
      2 C2          9.3060    3.8489   -0.1779 C.ar      1 <0>        -0.0495
      3 C3          7.9666    4.1832   -0.2047 C.ar      1 <0>        -0.1664
      4 C4          7.5858    5.5195   -0.2143 C.ar      1 <0>         0.2243
      5 C5          8.5550    6.5147   -0.2027 C.ar      1 <0>        -0.2346
      6 C6          9.8929    6.1731   -0.1712 C.ar      1 <0>        -0.0446
      7 C7          8.1469    7.9653   -0.2194 C.3       1 <0>         0.5078
      8 F1          9.2902    8.7715   -0.2034 F         1 <0>        -0.1724
      9 F2          7.4069    8.2283   -1.3771 F         1 <0>        -0.1781
     10 F3          7.3650    8.2427    0.9070 F         1 <0>        -0.1765
     11 N1          6.2314    5.8615   -0.2412 N.pl3     1 <0>        -0.6056
     12 C8          5.2619    4.8702   -0.1370 C.2       1 <0>         0.3106
     13 N2          5.4072    3.5601   -0.0991 N.2       1 <0>        -0.3425
     14 N3          4.2999    2.7514    0.0132 N.2       1 <0>        -0.2888
     15 C9          3.0969    3.2903    0.0710 C.2       1 <0>         0.0503
     16 S1          3.4868    5.0311   -0.0199 S.3       1 <0>         0.0285
     17 S2          1.5263    2.5035    0.2087 S.3       1 <0>         0.1492
     18 C10         1.9238    0.7339    0.2460 C.3       1 <0>        -0.1512
     19 C11         0.6510   -0.0644    0.3634 C.2       1 <0>         0.5210
     20 O1         -0.4188    0.5043    0.4168 O.2       1 <0>        -0.5168
     21 N4          0.7016   -1.4104    0.4093 N.am      1 <0>        -0.6258
     22 C12        -0.4655   -2.1450    0.6058 C.ar      1 <0>         0.1419
     23 C13        -1.6630   -1.7084    0.0575 C.ar      1 <0>        -0.0979
     24 C14        -2.8269   -2.4484    0.2523 C.ar      1 <0>        -0.1059
     25 C15        -2.7921   -3.6241    1.0072 C.ar      1 <0>        -0.1047
     26 C16        -1.6078   -4.0586    1.5575 C.ar      1 <0>        -0.0827
     27 C17        -0.4346   -3.3251    1.3632 C.ar      1 <0>        -0.1446
     28 C18         0.8352   -3.7916    1.9536 C.2       1 <0>         0.5024
     29 O2          1.8328   -3.1034    1.8702 O.co2     1 <0>        -0.6433
     30 C19        -4.1031   -1.9864   -0.3368 C.2       1 <0>         0.4968
     31 O3         -4.1345   -0.9650   -0.9930 O.co2     1 <0>        -0.6341
     32 H1         11.3152    4.5780   -0.1407 H         1 <0>         0.1351
     33 H2          9.6026    2.8104   -0.1705 H         1 <0>         0.1388
     34 H3          7.2158    3.4070   -0.2177 H         1 <0>         0.1856
     35 H4         10.6468    6.9463   -0.1588 H         1 <0>         0.1409
     36 H5          5.9675    6.7904   -0.3327 H         1 <0>         0.4272
     37 H6          2.4420    0.4585   -0.6726 H         1 <0>         0.1280
     38 H7          2.5650    0.5235    1.1019 H         1 <0>         0.1333
     39 H8          1.5508   -1.8677    0.3054 H         1 <0>         0.4217
     40 H9         -1.6919   -0.7979   -0.5226 H         1 <0>         0.1405
     41 H10        -3.6973   -4.1931    1.1596 H         1 <0>         0.1262
     42 H11        -1.5853   -4.9674    2.1405 H         1 <0>         0.1282
     43 O4          0.8879   -4.9806    2.5850 O.co2     1 <0>        -0.7556
     44 O5         -5.2301   -2.6986   -0.1453 O.co2     1 <0>        -0.7646
@<TRIPOS>BOND
     1    1    6 ar
     2    1    2 ar
     3    1   32 1
     4    2    3 ar
     5    2   33 1
     6    3    4 ar
     7    3   34 1
     8    4    5 ar
     9    4   11 1
    10    5    6 ar
    11    5    7 1
    12    6   35 1
    13    7    8 1
    14    7    9 1
    15    7   10 1
    16   11   12 1
    17   11   36 1
    18   12   16 1
    19   12   13 2
    20   13   14 1
    21   14   15 2
    22   15   16 1
    23   15   17 1
    24   17   18 1
    25   18   19 1
    26   18   37 1
    27   18   38 1
    28   19   20 2
    29   19   21 am
    30   21   22 1
    31   21   39 1
    32   22   27 ar
    33   22   23 ar
    34   23   24 ar
    35   23   40 1
    36   24   25 ar
    37   24   30 1
    38   25   26 ar
    39   25   41 1
    40   26   27 ar
    41   26   42 1
    42   27   28 1
    43   28   29 2
    44   28   43 1
    45   30   31 2
    46   30   44 1
@<TRIPOS>MOLECULE
ZINC36048890
   50    53     0     0     0
SMALL
USER_CHARGES

@<TRIPOS>ATOM
      1 C1         -0.6664    1.1366    2.5251 C.3       1 <0>        -0.0823
      2 C2         -0.3329   -0.0227    1.6218 C.2       1 <0>         0.2901
      3 C3         -1.2849   -0.5158    0.7802 C.2       1 <0>        -0.4344
      4 C4         -0.9081   -1.6802   -0.1096 C.3       1 <0>         0.2625
      5 H1         -1.5902   -2.5026    0.1058 H         1 <0>         0.0573
      6 N1          0.4810   -2.1935    0.0094 N.pl3     1 <0>        -0.5025
      7 C5          1.0566   -3.2255   -0.6789 C.2       1 <0>         0.2193
      8 C6          2.4554   -3.5330   -0.3711 C.2       1 <0>        -0.5041
      9 S1          2.8431   -2.4018    0.8089 S.3       1 <0>         0.1730
     10 C7          1.2839   -1.5539    0.9205 C.2       1 <0>         0.2942
     11 N2          0.8886   -0.5486    1.6517 N.2       1 <0>        -0.6097
     12 C8          0.3513   -3.9452   -1.6205 C.2       1 <0>        -0.4435
     13 C9          0.9325   -5.0889   -2.2179 C.2       1 <0>         0.4930
     14 O1          2.2011   -5.4079   -1.9539 O.co2     1 <0>        -0.7440
     15 O2          0.2118   -5.8485   -3.0453 O.co2     1 <0>        -0.7855
     16 C10        -1.1275   -1.2619   -1.5406 C.ar      1 <0>        -0.0612
     17 C11        -0.2863   -0.3342   -2.1261 C.ar      1 <0>        -0.0741
     18 C12        -0.4870    0.0498   -3.4385 C.ar      1 <0>        -0.1085
     19 C13        -1.5302   -0.4945   -4.1664 C.ar      1 <0>        -0.0339
     20 C14        -2.3717   -1.4229   -3.5800 C.ar      1 <0>        -0.1022
     21 C15        -2.1665   -1.8103   -2.2692 C.ar      1 <0>        -0.0940
     22 Cl1        -1.7833   -0.0122   -5.8148 Cl        1 <0>        -0.0916
     23 C16        -2.5844    0.0431    0.7403 C.2       1 <0>         0.5970
     24 O3         -2.8310    1.0565    1.3690 O.2       1 <0>        -0.5658
     25 N3         -3.5491   -0.5462    0.0064 N.am      1 <0>        -0.6875
     26 C17        -4.7869    0.0860   -0.1595 C.ar      1 <0>         0.1486
     27 C18        -4.8544    1.4709   -0.2409 C.ar      1 <0>        -0.0828
     28 C19        -6.0757    2.0937   -0.4050 C.ar      1 <0>        -0.1292
     29 C20        -7.2353    1.3366   -0.4880 C.ar      1 <0>         0.0886
     30 C21        -7.1688   -0.0468   -0.4063 C.ar      1 <0>        -0.1846
     31 C22        -5.9476   -0.6715   -0.2484 C.ar      1 <0>        -0.1222
     32 O4         -8.4376    1.9507   -0.6491 O.3       1 <0>        -0.3232
     33 C23        -9.5904    1.1097   -0.7269 C.3       1 <0>         0.0300
     34 H2          0.2093    1.3978    3.1193 H         1 <0>         0.0531
     35 H3         -0.9646    1.9937    1.9212 H         1 <0>         0.0817
     36 H4         -1.4851    0.8568    3.1880 H         1 <0>         0.0738
     37 H5          3.0843   -4.2999   -0.7985 H         1 <0>         0.2168
     38 H6         -0.6444   -3.6359   -1.9020 H         1 <0>         0.0734
     39 H7          0.5277    0.0909   -1.5577 H         1 <0>         0.1195
     40 H8          0.1700    0.7749   -3.8957 H         1 <0>         0.1258
     41 H9         -3.1864   -1.8479   -4.1476 H         1 <0>         0.1282
     42 H10        -2.8205   -2.5386   -1.8128 H         1 <0>         0.1234
     43 H11        -3.3856   -1.4084   -0.4069 H         1 <0>         0.4041
     44 H12        -3.9519    2.0604   -0.1756 H         1 <0>         0.1412
     45 H13        -6.1284    3.1705   -0.4684 H         1 <0>         0.1270
     46 H14        -8.0720   -0.6354   -0.4703 H         1 <0>         0.1244
     47 H15        -5.8955   -1.7486   -0.1896 H         1 <0>         0.1247
     48 H16        -9.4905    0.4340   -1.5764 H         1 <0>         0.0522
     49 H17        -9.6789    0.5288    0.1911 H         1 <0>         0.0514
     50 H18       -10.4810    1.7250   -0.8549 H         1 <0>         0.0927
@<TRIPOS>BOND
     1    1    2 1
     2    1   34 1
     3    1   35 1
     4    1   36 1
     5    2   11 1
     6    2    3 2
     7    3    4 1
     8    3   23 1
     9    4    5 1
    10    4    6 1
    11    4   16 1
    12    6   10 1
    13    6    7 1
    14    7    8 2
    15    7   12 1
    16    8    9 1
    17    8   37 1
    18    9   10 1
    19   10   11 2
    20   12   13 2
    21   12   38 1
    22   13   14 1
    23   13   15 1
    24   16   21 ar
    25   16   17 ar
    26   17   18 ar
    27   17   39 1
    28   18   19 ar
    29   18   40 1
    30   19   20 ar
    31   19   22 1
    32   20   21 ar
    33   20   41 1
    34   21   42 1
    35   23   24 2
    36   23   25 am
    37   25   26 1
    38   25   43 1
    39   26   31 ar
    40   26   27 ar
    41   27   28 ar
    42   27   44 1
    43   28   29 ar
    44   28   45 1
    45   29   30 ar
    46   29   32 1
    47   30   31 ar
    48   30   46 1
    49   31   47 1
    50   32   33 1
    51   33   48 1
    52   33   49 1
    53   33   50 1
@<TRIPOS>MOLECULE
ZINC13213250
   50    53     0     0     0
SMALL
USER_CHARGES

@<TRIPOS>ATOM
      1 C1         -1.6136    0.9829    0.5498 C.3       1 <0>        -0.1177
      2 C2         -1.1265   -0.4301    0.3568 C.ar      1 <0>        -0.0352
      3 C3         -1.0829   -0.9792   -0.9113 C.ar      1 <0>        -0.1137
      4 C4         -0.6362   -2.2751   -1.0883 C.ar      1 <0>        -0.0313
      5 C5         -0.2326   -3.0222    0.0028 C.ar      1 <0>        -0.0650
      6 C6         -0.2753   -2.4730    1.2704 C.ar      1 <0>        -0.0557
      7 C7         -0.7181   -1.1752    1.4469 C.ar      1 <0>        -0.0464
      8 N1         -0.7591   -0.5853    2.8039 N.pl3     1 <0>         0.0393
      9 O1         -0.4623    0.5751    2.9678 O.2       1 <0>        -0.1615
     10 O2         -1.0895   -1.2640    3.7483 O.3       1 <0>        -0.1658
     11 C8          0.2535   -4.4356   -0.1901 C.3       1 <0>         0.2633
     12 H1          0.7542   -4.7858    0.7126 H         1 <0>         0.0792
     13 C9         -0.9070   -5.3429   -0.5257 C.2       1 <0>        -0.5148
     14 C10        -0.6535   -5.8648   -1.7491 C.2       1 <0>         0.2796
     15 C11         0.6355   -5.3387   -2.2436 C.2       1 <0>         0.5003
     16 O3          1.1389   -5.6197   -3.3132 O.2       1 <0>        -0.4898
     17 N2          1.1706   -4.5022   -1.3339 N.am      1 <0>        -0.5517
     18 C12         2.3832   -3.8176   -1.4570 C.ar      1 <0>         0.1606
     19 C13         2.8185   -2.9848   -0.4320 C.ar      1 <0>        -0.1685
     20 C14         4.0167   -2.3054   -0.5482 C.ar      1 <0>        -0.1151
     21 C15         4.7897   -2.4486   -1.6823 C.ar      1 <0>        -0.1151
     22 C16         4.3619   -3.2828   -2.7184 C.ar      1 <0>        -0.1086
     23 C17         3.1543   -3.9734   -2.5983 C.ar      1 <0>        -0.1186
     24 C18         5.1862   -3.4381   -3.9324 C.2       1 <0>         0.5217
     25 O4          6.2459   -2.8361   -4.0331 O.co2     1 <0>        -0.6954
     26 O5          4.8096   -4.1688   -4.8378 O.co2     1 <0>        -0.6795
     27 O6         -1.4533   -6.7308   -2.4130 O.3       1 <0>        -0.6438
     28 C19        -2.0806   -5.6075    0.3116 C.2       1 <0>         0.5100
     29 O7         -3.1785   -5.2165   -0.0386 O.2       1 <0>        -0.4710
     30 C20        -1.9306   -6.3488    1.5807 C.ar      1 <0>        -0.1470
     31 C21        -0.6699   -6.7914    1.9895 C.ar      1 <0>        -0.0368
     32 C22        -0.5358   -7.4820    3.1744 C.ar      1 <0>        -0.1674
     33 C23        -1.6493   -7.7380    3.9607 C.ar      1 <0>         0.1077
     34 C24        -2.9031   -7.3015    3.5597 C.ar      1 <0>        -0.1692
     35 C25        -3.0481   -6.6049    2.3795 C.ar      1 <0>        -0.0459
     36 F1         -1.5120   -8.4155    5.1215 F         1 <0>        -0.1444
     37 H2         -0.7608    1.6614    0.5715 H         1 <0>         0.0892
     38 H3         -2.2737    1.2553   -0.2737 H         1 <0>         0.0747
     39 H4         -2.1585    1.0540    1.4911 H         1 <0>         0.0668
     40 H5         -1.3982   -0.3955   -1.7636 H         1 <0>         0.1433
     41 H6         -0.6028   -2.7042   -2.0788 H         1 <0>         0.1379
     42 H7          0.0396   -3.0568    2.1227 H         1 <0>         0.1436
     43 H8          2.2181   -2.8681    0.4580 H         1 <0>         0.1097
     44 H9          4.3489   -1.6599    0.2513 H         1 <0>         0.1127
     45 H10         5.7250   -1.9157   -1.7692 H         1 <0>         0.1226
     46 H11         2.8202   -4.6235   -3.3934 H         1 <0>         0.1582
     47 H12         0.1977   -6.5929    1.3778 H         1 <0>         0.1453
     48 H13         0.4381   -7.8249    3.4912 H         1 <0>         0.1365
     49 H14        -3.7669   -7.5042    4.1755 H         1 <0>         0.1337
     50 H15        -4.0243   -6.2616    2.0703 H         1 <0>         0.1391
@<TRIPOS>BOND
     1    1    2 1
     2    1   37 1
     3    1   38 1
     4    1   39 1
     5    2    7 ar
     6    2    3 ar
     7    3    4 ar
     8    3   40 1
     9    4    5 ar
    10    4   41 1
    11    5    6 ar
    12    5   11 1
    13    6    7 ar
    14    6   42 1
    15    7    8 1
    16    8    9 2
    17    8   10 1
    18   11   12 1
    19   11   17 1
    20   11   13 1
    21   13   14 2
    22   13   28 1
    23   14   15 1
    24   14   27 1
    25   15   16 2
    26   15   17 am
    27   17   18 1
    28   18   23 ar
    29   18   19 ar
    30   19   20 ar
    31   19   43 1
    32   20   21 ar
    33   20   44 1
    34   21   22 ar
    35   21   45 1
    36   22   23 ar
    37   22   24 1
    38   23   46 1
    39   24   25 2
    40   24   26 1
    41   28   29 2
    42   28   30 1
    43   30   35 ar
    44   30   31 ar
    45   31   32 ar
    46   31   47 1
    47   32   33 ar
    48   32   48 1
    49   33   34 ar
    50   33   36 1
    51   34   35 ar
    52   34   49 1
    53   35   50 1
@<TRIPOS>MOLECULE
ZINC39715250
   52    55     0     0     0
SMALL
USER_CHARGES

@<TRIPOS>ATOM
      1 C1         -5.2057   -2.5599    4.2671 C.3       1 <0>        -0.1152
      2 C2         -4.1833   -3.2376    3.3917 C.ar      1 <0>        -0.0694
      3 C3         -4.5732   -4.2434    2.5257 C.ar      1 <0>        -0.1256
      4 C4         -3.6386   -4.8678    1.7201 C.ar      1 <0>        -0.1054
      5 C5         -2.3117   -4.4892    1.7780 C.ar      1 <0>        -0.0820
      6 C6         -1.9163   -3.4793    2.6467 C.ar      1 <0>        -0.0840
      7 C7         -2.8596   -2.8500    3.4508 C.ar      1 <0>        -0.1047
      8 S1         -0.2245   -2.9933    2.7243 S.3       1 <0>         0.0359
      9 C8         -0.2222   -1.6350    3.8466 C.2       1 <0>        -0.1744
     10 C9          0.0997   -0.3924    3.4071 C.2       1 <0>         0.0779
     11 C10         0.4152    0.6681    4.3713 C.ar      1 <0>        -0.0813
     12 C11         1.2653    0.4018    5.4535 C.ar      1 <0>        -0.0525
     13 C12         1.5581    1.3883    6.3495 C.ar      1 <0>        -0.0897
     14 C13         1.0096    2.6664    6.1882 C.ar      1 <0>        -0.1000
     15 C14         0.1603    2.9333    5.1075 C.ar      1 <0>        -0.0992
     16 C15        -0.1289    1.9494    4.2073 C.ar      1 <0>        -0.1000
     17 C16         1.3257    3.7303    7.1558 C.2       1 <0>         0.5201
     18 O1          2.0674    3.4973    8.1005 O.co2     1 <0>        -0.6890
     19 O2          0.8466    4.8472    7.0152 O.co2     1 <0>        -0.6934
     20 C17        -0.5702   -1.8488    5.2641 C.2       1 <0>         0.4686
     21 N1         -0.7081   -0.7906    6.0453 N.2       1 <0>        -0.5848
     22 C18        -1.0209   -0.8858    7.3378 C.2       1 <0>         0.5484
     23 O3         -1.1408    0.1115    8.0300 O.2       1 <0>        -0.4502
     24 C19        -1.2214   -2.2541    7.9149 C.2       1 <0>        -0.3395
     25 C20        -1.5372   -2.5831    9.1752 C.2       1 <0>         0.0981
     26 C21        -1.6831   -4.0512    9.5046 C.3       1 <0>        -0.1394
     27 H1         -0.9518   -4.3580   10.2523 H         1 <0>         0.1507
     28 S2         -1.3311   -4.8349    7.8789 S.3       1 <0>         0.0279
     29 C22        -1.0399   -3.3547    6.9430 C.2       1 <0>         0.2803
     30 N2         -0.7362   -3.1004    5.6957 N.2       1 <0>        -0.5410
     31 C23        -3.0839   -4.3646    9.9636 C.2       1 <0>         0.5254
     32 O4         -3.9094   -4.7748    9.1657 O.co2     1 <0>        -0.6454
     33 O5         -3.3917   -4.2079   11.1329 O.co2     1 <0>        -0.6571
     34 C24        -1.7396   -1.5248   10.2289 C.3       1 <0>        -0.1472
     35 C25        -1.2938   -5.1709    0.9004 C.3       1 <0>        -0.1105
     36 H2         -5.6228   -1.7014    3.7408 H         1 <0>         0.0683
     37 H3         -6.0038   -3.2632    4.5049 H         1 <0>         0.0682
     38 H4         -4.7300   -2.2250    5.1889 H         1 <0>         0.0644
     39 H5         -5.6100   -4.5420    2.4789 H         1 <0>         0.1189
     40 H6         -3.9466   -5.6526    1.0452 H         1 <0>         0.1209
     41 H7         -2.5565   -2.0619    4.1241 H         1 <0>         0.1157
     42 H8          0.1237   -0.1837    2.3478 H         1 <0>         0.1433
     43 H9          1.6881   -0.5842    5.5783 H         1 <0>         0.0960
     44 H10         2.2128    1.1831    7.1836 H         1 <0>         0.1170
     45 H11        -0.2623    3.9195    4.9837 H         1 <0>         0.1221
     46 H12        -0.7804    2.1567    3.3713 H         1 <0>         0.1110
     47 H13        -1.5893   -0.5395    9.7877 H         1 <0>         0.1105
     48 H14        -2.7529   -1.5951   10.6244 H         1 <0>         0.0973
     49 H15        -1.0231   -1.6745   11.0365 H         1 <0>         0.0885
     50 H16        -1.2154   -4.6375   -0.0469 H         1 <0>         0.0699
     51 H17        -0.3247   -5.1696    1.3994 H         1 <0>         0.0696
     52 H18        -1.6050   -6.1988    0.7139 H         1 <0>         0.0659
@<TRIPOS>BOND
     1    1    2 1
     2    1   36 1
     3    1   37 1
     4    1   38 1
     5    2    7 ar
     6    2    3 ar
     7    3    4 ar
     8    3   39 1
     9    4    5 ar
    10    4   40 1
    11    5    6 ar
    12    5   35 1
    13    6    7 ar
    14    6    8 1
    15    7   41 1
    16    8    9 1
    17    9   10 2
    18    9   20 1
    19   10   11 1
    20   10   42 1
    21   11   16 ar
    22   11   12 ar
    23   12   13 ar
    24   12   43 1
    25   13   14 ar
    26   13   44 1
    27   14   15 ar
    28   14   17 1
    29   15   16 ar
    30   15   45 1
    31   16   46 1
    32   17   18 2
    33   17   19 1
    34   20   30 1
    35   20   21 2
    36   21   22 1
    37   22   23 2
    38   22   24 1
    39   24   29 1
    40   24   25 2
    41   25   26 1
    42   25   34 1
    43   26   27 1
    44   26   28 1
    45   26   31 1
    46   28   29 1
    47   29   30 2
    48   31   32 2
    49   31   33 1
    50   34   47 1
    51   34   48 1
    52   34   49 1
    53   35   50 1
    54   35   51 1
    55   35   52 1
@<TRIPOS>MOLECULE
ZINC59198598
   45    48     0     0     0
SMALL
USER_CHARGES

@<TRIPOS>ATOM
      1 C1          0.8410    2.6433   -0.9882 C.3       1 <0>        -0.1082
      2 C2          0.6413    1.1574   -1.1407 C.ar      1 <0>        -0.0669
      3 C3          0.7940    0.5654   -2.3786 C.ar      1 <0>        -0.1427
      4 C4          0.6126   -0.7949   -2.5281 C.ar      1 <0>        -0.0682
      5 C5          0.2724   -1.5841   -1.4246 C.ar      1 <0>        -0.1425
      6 C6          0.1169   -0.9938   -0.1713 C.ar      1 <0>        -0.0405
      7 C7          0.3073    0.3805   -0.0268 C.ar      1 <0>        -0.0549
      8 C8          0.1505    1.0138    1.2964 C.2       1 <0>         0.1052
      9 C9         -0.9215    0.8415    2.1497 C.2       1 <0>        -0.2220
     10 C10        -0.6713    1.6128    3.2810 C.2       1 <0>        -0.1374
     11 C11         0.5559    2.2356    3.0789 C.2       1 <0>        -0.0334
     12 O1          1.0297    1.8495    1.8742 O.3       1 <0>        -0.0971
     13 C12         1.1920    3.1063    3.9712 C.2       1 <0>         0.1161
     14 C13         2.5684    3.0082    4.1802 C.2       1 <0>        -0.2662
     15 C14         3.3190    1.9177    3.6569 C.2       1 <0>         0.4798
     16 O2          2.7091    0.9481    2.9410 O.3       1 <0>        -0.5509
     17 N1          4.6204    1.8668    3.8803 N.2       1 <0>        -0.5900
     18 C15         5.2556    2.8032    4.5802 C.2       1 <0>         0.5416
     19 S1          6.9442    2.6460    4.8141 S.2       1 <0>        -0.6722
     20 N2          4.6300    3.8665    5.1108 N.am      1 <0>        -0.5172
     21 C16         3.2995    4.0316    4.9450 C.2       1 <0>         0.5632
     22 O3          2.7226    4.9942    5.4170 O.2       1 <0>        -0.5096
     23 C17         5.3634    4.8144    5.8364 C.ar      1 <0>         0.1853
     24 C18         5.9238    5.9062    5.1868 C.ar      1 <0>        -0.0859
     25 C19         6.6463    6.8390    5.9044 C.ar      1 <0>        -0.0809
     26 C20         6.8121    6.6865    7.2696 C.ar      1 <0>        -0.0884
     27 C21         6.2548    5.5995    7.9194 C.ar      1 <0>        -0.0809
     28 C22         5.5265    4.6667    7.2074 C.ar      1 <0>        -0.0861
     29 Br1         7.8026    7.9654    8.2489 Br        1 <0>        -0.0650
     30 C23         0.0780   -3.0378   -1.5867 C.2       1 <0>         0.5245
     31 O4          0.2144   -3.5540   -2.6869 O.co2     1 <0>        -0.6909
     32 O5         -0.2194   -3.7264   -0.6209 O.co2     1 <0>        -0.6852
     33 H1          1.8869    2.8478   -0.7595 H         1 <0>         0.0707
     34 H2          0.5675    3.1439   -1.9170 H         1 <0>         0.0622
     35 H3          0.2129    3.0130   -0.1777 H         1 <0>         0.0598
     36 H4          1.0563    1.1697   -3.2345 H         1 <0>         0.1182
     37 H5          0.7334   -1.2509   -3.4996 H         1 <0>         0.1283
     38 H6         -0.1461   -1.5981    0.6843 H         1 <0>         0.1326
     39 H7         -1.7903    0.2250    1.9724 H         1 <0>         0.1527
     40 H8         -1.3076    1.7093    4.1484 H         1 <0>         0.1528
     41 H9          0.6177    3.8540    4.4979 H         1 <0>         0.1616
     42 H10         5.7950    6.0256    4.1211 H         1 <0>         0.1299
     43 H11         7.0827    7.6882    5.3995 H         1 <0>         0.1342
     44 H12         6.3857    5.4827    8.9851 H         1 <0>         0.1341
     45 H13         5.0879    3.8208    7.7158 H         1 <0>         0.1300
@<TRIPOS>BOND
     1    1    2 1
     2    1   33 1
     3    1   34 1
     4    1   35 1
     5    2    7 ar
     6    2    3 ar
     7    3    4 ar
     8    3   36 1
     9    4    5 ar
    10    4   37 1
    11    5    6 ar
    12    5   30 1
    13    6    7 ar
    14    6   38 1
    15    7    8 1
    16    8   12 1
    17    8    9 2
    18    9   10 1
    19    9   39 1
    20   10   11 2
    21   10   40 1
    22   11   12 1
    23   11   13 1
    24   13   14 2
    25   13   41 1
    26   14   21 1
    27   14   15 1
    28   15   16 1
    29   15   17 2
    30   17   18 1
    31   18   19 2
    32   18   20 1
    33   20   21 am
    34   20   23 1
    35   21   22 2
    36   23   28 ar
    37   23   24 ar
    38   24   25 ar
    39   24   42 1
    40   25   26 ar
    41   25   43 1
    42   26   27 ar
    43   26   29 1
    44   27   28 ar
    45   27   44 1
    46   28   45 1
    47   30   31 2
    48   30   32 1
@<TRIPOS>MOLECULE
ZINC08653001
   61    66     0     0     0
SMALL
USER_CHARGES
(4-hydroxy-3,5-dimethoxy-phenyl)-(3-hydroxyphenyl)amino-BLAHone
@<TRIPOS>ATOM
      1 C1          8.4202   -8.0093   -2.5816 C.3       1 <0>         0.0240
      2 O1          7.1956   -8.7287   -2.4241 O.3       1 <0>        -0.3020
      3 C2          6.1126   -8.0202   -2.0063 C.ar      1 <0>         0.1471
      4 C3          6.2272   -6.6616   -1.7535 C.ar      1 <0>        -0.2097
      5 C4          5.1268   -5.9403   -1.3297 C.ar      1 <0>        -0.0077
      6 C5          3.9098   -6.5708   -1.1502 C.ar      1 <0>        -0.2192
      7 C6          3.7856   -7.9280   -1.4058 C.ar      1 <0>         0.1447
      8 C7          4.8894   -8.6567   -1.8325 C.ar      1 <0>         0.0425
      9 O2          4.7727   -9.9898   -2.0799 O.3       1 <0>        -0.4733
     10 O3          2.5864   -8.5462   -1.2346 O.3       1 <0>        -0.3018
     11 C8          1.4954   -7.7351   -0.7940 C.3       1 <0>         0.0255
     12 C9          5.2557   -4.4639   -1.0566 C.3       1 <0>         0.0220
     13 H1          6.2764   -4.1388   -1.2584 H         1 <0>         0.1059
     14 C10         4.2875   -3.6923   -1.9366 C.ar      1 <0>        -0.0576
     15 C11         4.1867   -4.1213   -3.2615 C.ar      1 <0>        -0.0895
     16 C12         3.3086   -3.4518   -4.0962 C.ar      1 <0>         0.0414
     17 C13         2.5435   -2.3752   -3.6211 C.ar      1 <0>         0.0349
     18 C14         2.6513   -1.9534   -2.3070 C.ar      1 <0>        -0.0900
     19 C15         3.5429   -2.6301   -1.4722 C.ar      1 <0>        -0.0989
     20 C16         3.6362   -2.1224   -0.0440 C.3       1 <0>         0.2181
     21 H2          2.7982   -2.5038    0.5394 H         1 <0>         0.1055
     22 C17         4.9416   -2.6238    0.5442 C.3       1 <0>        -0.1358
     23 H3          5.8055   -2.1710    0.0576 H         1 <0>         0.1183
     24 C18         4.9031   -4.1776    0.3881 C.3       1 <0>        -0.1488
     25 H4          3.9119   -4.5608    0.6305 H         1 <0>         0.1293
     26 C19         5.8984   -4.6116    1.4232 C.2       1 <0>         0.4920
     27 O4          6.5593   -5.6225    1.3892 O.2       1 <0>        -0.4292
     28 O5          5.9292   -3.6769    2.4019 O.3       1 <0>        -0.3458
     29 C20         5.0415   -2.5516    2.0759 C.3       1 <0>         0.0657
     30 N1          3.6193   -0.6575   -0.0364 N.pl3     1 <0>        -0.7378
     31 C21         2.4018    0.0268   -0.0211 C.ar      1 <0>         0.2285
     32 C22         1.2059   -0.6810   -0.0131 C.ar      1 <0>        -0.2107
     33 C23         0.0021   -0.0041    0.0020 C.ar      1 <0>        -0.0544
     34 C24        -0.0167    1.3780    0.0096 C.ar      1 <0>        -0.1983
     35 C25         1.1744    2.0900    0.0021 C.ar      1 <0>         0.1542
     36 C26         2.3847    1.4146   -0.0135 C.ar      1 <0>        -0.2179
     37 O6          1.1542    3.4488    0.0100 O.3       1 <0>        -0.5005
     38 O7          1.7748   -1.9080   -4.6309 O.3       1 <0>        -0.3024
     39 C27         1.7792   -2.9464   -5.6326 C.3       1 <0>         0.2105
     40 O8          3.0174   -3.6503   -5.4018 O.3       1 <0>        -0.3029
     41 H5          9.2013   -8.6909   -2.9183 H         1 <0>         0.1036
     42 H6          8.2848   -7.2188   -3.3197 H         1 <0>         0.0573
     43 H7          8.7085   -7.5695   -1.6269 H         1 <0>         0.0595
     44 H8          7.1773   -6.1662   -1.8883 H         1 <0>         0.1349
     45 H9          3.0535   -6.0047   -0.8143 H         1 <0>         0.1315
     46 H10         4.9491  -10.5495   -1.3113 H         1 <0>         0.3832
     47 H11         0.6008   -8.3504   -0.6983 H         1 <0>         0.1035
     48 H12         1.7380   -7.2938    0.1726 H         1 <0>         0.0558
     49 H13         1.3154   -6.9426   -1.5204 H         1 <0>         0.0564
     50 H14         4.7758   -4.9508   -3.6240 H         1 <0>         0.1438
     51 H15         2.0631   -1.1260   -1.9385 H         1 <0>         0.1543
     52 H16         5.4856   -1.6068    2.3892 H         1 <0>         0.1161
     53 H17         4.0615   -2.6886    2.5330 H         1 <0>         0.0961
     54 H18         4.4537   -0.1629   -0.0420 H         1 <0>         0.4055
     55 H19         1.2177   -1.7609   -0.0190 H         1 <0>         0.1250
     56 H20        -0.9264   -0.5557    0.0075 H         1 <0>         0.1272
     57 H21        -0.9596    1.9044    0.0169 H         1 <0>         0.1259
     58 H22         3.3127    1.9671   -0.0198 H         1 <0>         0.1278
     59 H23         1.1570    3.8371    0.8956 H         1 <0>         0.3937
     60 H24         0.9288   -3.6140   -5.4945 H         1 <0>         0.0892
     61 H25         1.7671   -2.5126   -6.6325 H         1 <0>         0.1337
@<TRIPOS>BOND
     1    1    2 1
     2    1   41 1
     3    1   42 1
     4    1   43 1
     5    2    3 1
     6    3    8 ar
     7    3    4 ar
     8    4    5 ar
     9    4   44 1
    10    5    6 ar
    11    5   12 1
    12    6    7 ar
    13    6   45 1
    14    7    8 ar
    15    7   10 1
    16    8    9 1
    17    9   46 1
    18   10   11 1
    19   11   47 1
    20   11   48 1
    21   11   49 1
    22   12   13 1
    23   12   24 1
    24   12   14 1
    25   14   19 ar
    26   14   15 ar
    27   15   16 ar
    28   15   50 1
    29   16   40 1
    30   16   17 ar
    31   17   18 ar
    32   17   38 1
    33   18   19 ar
    34   18   51 1
    35   19   20 1
    36   20   21 1
    37   20   22 1
    38   20   30 1
    39   22   23 1
    40   22   29 1
    41   22   24 1
    42   24   25 1
    43   24   26 1
    44   26   27 2
    45   26   28 1
    46   28   29 1
    47   29   52 1
    48   29   53 1
    49   30   31 1
    50   30   54 1
    51   31   36 ar
    52   31   32 ar
    53   32   33 ar
    54   32   55 1
    55   33   34 ar
    56   33   56 1
    57   34   35 ar
    58   34   57 1
    59   35   36 ar
    60   35   37 1
    61   36   58 1
    62   37   59 1
    63   38   39 1
    64   39   40 1
    65   39   60 1
    66   39   61 1
@<TRIPOS>MOLECULE
ZINC14656796
   64    66     0     0     0
SMALL
USER_CHARGES
N-(6-amino-1-butyl-2,4-dioxo-pyrimidin-5-yl)-4-(ethyl-phenyl-sulfamoyl)-N-methyl-benzamide
@<TRIPOS>ATOM
      1 C1          2.9028    9.3350   -7.3131 C.3       1 <0>        -0.1540
      2 C2          3.7398    9.1116   -6.0519 C.3       1 <0>        -0.1199
      3 C3          2.8428    8.5802   -4.9321 C.3       1 <0>        -0.1406
      4 C4          3.6798    8.3568   -3.6709 C.3       1 <0>         0.1015
      5 N1          2.8210    7.8480   -2.5987 N.am      1 <0>        -0.5353
      6 C5          2.6473    6.4919   -2.4472 C.2       1 <0>         0.4957
      7 C6          1.8352    6.0258   -1.4333 C.2       1 <0>        -0.1790
      8 C7          1.2081    6.9562   -0.5831 C.2       1 <0>         0.5634
      9 O1          0.4857    6.5719    0.3210 O.2       1 <0>        -0.5077
     10 N2          1.4118    8.2743   -0.7748 N.am      1 <0>        -0.6626
     11 H1          0.9700    8.9360   -0.1690 H         1 <0>         0.4442
     12 C8          2.2025    8.7101   -1.7715 C.2       1 <0>         0.7093
     13 O2          2.3654    9.9054   -1.9248 O.2       1 <0>        -0.5217
     14 N3          1.6374    4.6414   -1.2518 N.am      1 <0>        -0.5099
     15 C9          0.2849    4.0812   -1.3077 C.3       1 <0>         0.0858
     16 C10         2.6926    3.8337   -1.0269 C.2       1 <0>         0.5454
     17 O3          2.5321    2.6307   -0.9502 O.2       1 <0>        -0.5101
     18 C11         4.0452    4.4102   -0.8733 C.ar      1 <0>        -0.0725
     19 C12         4.1997    5.7598   -0.5524 C.ar      1 <0>        -0.1241
     20 C13         5.4647    6.2901   -0.4049 C.ar      1 <0>        -0.0309
     21 C14         6.5789    5.4899   -0.5852 C.ar      1 <0>        -0.6543
     22 C15         6.4329    4.1528   -0.9095 C.ar      1 <0>        -0.0195
     23 C16         5.1735    3.6086   -1.0543 C.ar      1 <0>        -0.0815
     24 S1          8.1911    6.1769   -0.4016 S.o2      1 <0>         2.6785
     25 O4          8.0544    7.3150    0.4382 O.2       1 <0>        -0.9415
     26 O5          9.0591    5.0970   -0.0859 O.2       1 <0>        -0.9385
     27 N4          8.6561    6.7388   -1.8883 N.pl3     1 <0>        -0.9449
     28 C17         8.4380    8.1438   -2.2413 C.3       1 <0>         0.1167
     29 C18         9.7066    8.9467   -1.9464 C.3       1 <0>        -0.1753
     30 C19         9.2562    5.8733   -2.8056 C.ar      1 <0>         0.1295
     31 C20         8.6501    5.6287   -4.0314 C.ar      1 <0>        -0.1177
     32 C21         9.2486    4.7761   -4.9380 C.ar      1 <0>        -0.1116
     33 C22        10.4447    4.1579   -4.6226 C.ar      1 <0>        -0.1139
     34 C23        11.0482    4.3950   -3.4012 C.ar      1 <0>        -0.1052
     35 C24        10.4577    5.2506   -2.4920 C.ar      1 <0>        -0.1042
     36 N5          3.2753    5.6115   -3.2953 N.pl3     1 <0>        -0.8235
     37 H2          2.1159   10.0595   -7.1032 H         1 <0>         0.0568
     38 H3          3.5418    9.7136   -8.1109 H         1 <0>         0.0594
     39 H4          2.4545    8.3913   -7.6235 H         1 <0>         0.0544
     40 H5          4.1881   10.0553   -5.7415 H         1 <0>         0.0704
     41 H6          4.5267    8.3871   -6.2618 H         1 <0>         0.0650
     42 H7          2.3945    7.6365   -5.2425 H         1 <0>         0.0695
     43 H8          2.0559    9.3047   -4.7222 H         1 <0>         0.0796
     44 H9          4.1282    9.3005   -3.3605 H         1 <0>         0.1173
     45 H10         4.4667    7.6323   -3.8808 H         1 <0>         0.0911
     46 H11         0.0232    3.8663   -2.3438 H         1 <0>         0.0592
     47 H12         0.2487    3.1605   -0.7253 H         1 <0>         0.0848
     48 H13        -0.4234    4.7999   -0.8956 H         1 <0>         0.0834
     49 H14         3.3308    6.3864   -0.4155 H         1 <0>         0.1486
     50 H15         5.5856    7.3331   -0.1519 H         1 <0>         0.1421
     51 H16         7.3067    3.5337   -1.0492 H         1 <0>         0.1485
     52 H17         5.0608    2.5646   -1.3067 H         1 <0>         0.1482
     53 H18         8.1988    8.2190   -3.3021 H         1 <0>         0.0851
     54 H19         7.6111    8.5421   -1.6533 H         1 <0>         0.0873
     55 H20        10.5335    8.5484   -2.5344 H         1 <0>         0.0634
     56 H21         9.5443    9.9920   -2.2090 H         1 <0>         0.0744
     57 H22         9.9457    8.8715   -0.8856 H         1 <0>         0.0641
     58 H23         7.7137    6.1078   -4.2765 H         1 <0>         0.1236
     59 H24         8.7799    4.5887   -5.8928 H         1 <0>         0.1270
     60 H25        10.9087    3.4886   -5.3319 H         1 <0>         0.1267
     61 H26        11.9825    3.9109   -3.1581 H         1 <0>         0.1303
     62 H27        10.9294    5.4351   -1.5381 H         1 <0>         0.1335
     63 H28         3.0794    4.6630   -3.2417 H         1 <0>         0.4250
     64 H29         3.9145    5.9386   -3.9475 H         1 <0>         0.4115
@<TRIPOS>BOND
     1    1    2 1
     2    1   37 1
     3    1   38 1
     4    1   39 1
     5    2    3 1
     6    2   40 1
     7    2   41 1
     8    3    4 1
     9    3   42 1
    10    3   43 1
    11    4    5 1
    12    4   44 1
    13    4   45 1
    14    5   12 am
    15    5    6 1
    16    6    7 2
    17    6   36 1
    18    7    8 1
    19    7   14 1
    20    8    9 2
    21    8   10 am
    22   10   11 1
    23   10   12 am
    24   12   13 2
    25   14   15 1
    26   14   16 am
    27   15   46 1
    28   15   47 1
    29   15   48 1
    30   16   17 2
    31   16   18 1
    32   18   23 ar
    33   18   19 ar
    34   19   20 ar
    35   19   49 1
    36   20   21 ar
    37   20   50 1
    38   21   22 ar
    39   21   24 1
    40   22   23 ar
    41   22   51 1
    42   23   52 1
    43   24   25 2
    44   24   26 2
    45   24   27 1
    46   27   28 1
    47   27   30 1
    48   28   29 1
    49   28   53 1
    50   28   54 1
    51   29   55 1
    52   29   56 1
    53   29   57 1
    54   30   35 ar
    55   30   31 ar
    56   31   32 ar
    57   31   58 1
    58   32   33 ar
    59   32   59 1
    60   33   34 ar
    61   33   60 1
    62   34   35 ar
    63   34   61 1
    64   35   62 1
    65   36   63 1
    66   36   64 1
@<TRIPOS>MOLECULE
ZINC18518376
   62    66     0     0     0
SMALL
USER_CHARGES
(2R)-2-[[4-(2-methoxyphenyl)-5-(1-piperidyl)-1,2,4-triazol-3-yl]sulfanyl]-N-(2-oxo-1,3-dihydrobenzimidazol-5-yl)propanamide
@<TRIPOS>ATOM
      1 C1         -5.4880    0.7619    3.5827 C.3       1 <0>        -0.1461
      2 C2         -4.0798    0.2052    3.8017 C.3       1 <0>        -0.1110
      3 H1         -4.0371   -0.8247    3.4475 H         1 <0>         0.1269
      4 C3         -3.7466    0.2454    5.2708 C.2       1 <0>         0.5411
      5 O1         -3.1323    1.1862    5.7279 O.2       1 <0>        -0.4982
      6 N1         -4.1310   -0.7640    6.0769 N.am      1 <0>        -0.6614
      7 C4         -3.7274   -0.7818    7.4182 C.ar      1 <0>         0.1565
      8 C5         -4.5683   -1.3147    8.3887 C.ar      1 <0>        -0.1276
      9 C6         -4.1764   -1.3352    9.7120 C.ar      1 <0>        -0.0820
     10 C7         -2.9399   -0.8233   10.0757 C.ar      1 <0>         0.0768
     11 C8         -2.0929   -0.2879    9.1033 C.ar      1 <0>         0.1116
     12 C9         -2.4874   -0.2732    7.7746 C.ar      1 <0>        -0.1075
     13 N2         -0.9426    0.1397    9.7623 N.am      1 <0>        -0.6399
     14 H2         -0.1718    0.5561    9.3460 H         1 <0>         0.4372
     15 C10        -1.0826   -0.1230   11.0752 C.2       1 <0>         0.6852
     16 O2         -0.2552    0.1267   11.9319 O.2       1 <0>        -0.5533
     17 N3         -2.2768   -0.7040   11.2968 N.am      1 <0>        -0.6409
     18 H3         -2.6178   -0.9902   12.1585 H         1 <0>         0.4366
     19 S1         -2.8823    1.2110    2.8824 S.3       1 <0>         0.0787
     20 C11        -3.3103    0.9459    1.1938 C.2       1 <0>         0.2048
     21 N4         -4.2832    0.1842    0.7555 N.2       1 <0>        -0.3097
     22 N5         -4.2865    0.2470   -0.6440 N.2       1 <0>        -0.3405
     23 C12        -3.3199    1.0493   -1.0170 C.2       1 <0>         0.4248
     24 N6         -2.6856    1.4989    0.1087 N.pl3     1 <0>        -0.4294
     25 C13        -1.5908    2.3775    0.1448 C.ar      1 <0>         0.0641
     26 C14        -0.2974    1.8778    0.1185 C.ar      1 <0>        -0.0489
     27 C15         0.7786    2.7445    0.1484 C.ar      1 <0>        -0.1454
     28 C16         0.5695    4.1100    0.2094 C.ar      1 <0>        -0.0549
     29 C17        -0.7168    4.6150    0.2408 C.ar      1 <0>        -0.2033
     30 C18        -1.8010    3.7523    0.2111 C.ar      1 <0>         0.1496
     31 O3         -3.0668    4.2475    0.2415 O.3       1 <0>        -0.3088
     32 C19        -3.2064    5.6683    0.3040 C.3       1 <0>         0.0237
     33 N7         -2.9939    1.3817   -2.3258 N.pl3     1 <0>        -0.4490
     34 C20        -3.0071    2.8375   -2.5179 C.3       1 <0>         0.0515
     35 C21        -2.5042    3.1725   -3.9239 C.3       1 <0>        -0.1151
     36 C22        -3.4064    2.4942   -4.9585 C.3       1 <0>        -0.1252
     37 C23        -3.4132    0.9839   -4.7062 C.3       1 <0>        -0.1183
     38 C24        -3.8898    0.7124   -3.2775 C.3       1 <0>         0.0693
     39 H4         -6.2075    0.1575    4.1352 H         1 <0>         0.0748
     40 H5         -5.5307    1.7918    3.9370 H         1 <0>         0.0743
     41 H6         -5.7290    0.7328    2.5201 H         1 <0>         0.0897
     42 H7         -4.6872   -1.4781    5.7282 H         1 <0>         0.4181
     43 H8         -5.5315   -1.7135    8.1063 H         1 <0>         0.1405
     44 H9         -4.8323   -1.7492   10.4636 H         1 <0>         0.1396
     45 H10        -1.8329    0.1368    7.0197 H         1 <0>         0.1445
     46 H11        -0.1311    0.8118    0.0701 H         1 <0>         0.1369
     47 H12         1.7854    2.3543    0.1236 H         1 <0>         0.1381
     48 H13         1.4133    4.7837    0.2322 H         1 <0>         0.1366
     49 H14        -0.8770    5.6820    0.2881 H         1 <0>         0.1407
     50 H15        -2.7242    6.0414    1.2075 H         1 <0>         0.0628
     51 H16        -2.7368    6.1183   -0.5707 H         1 <0>         0.0598
     52 H17        -4.2646    5.9290    0.3227 H         1 <0>         0.1045
     53 H18        -4.0242    3.2105   -2.3976 H         1 <0>         0.0491
     54 H19        -2.3584    3.3073   -1.7786 H         1 <0>         0.0853
     55 H20        -1.4821    2.8120   -4.0403 H         1 <0>         0.0750
     56 H21        -2.5289    4.2521   -4.0716 H         1 <0>         0.0741
     57 H22        -3.0264    2.6944   -5.9603 H         1 <0>         0.0711
     58 H23        -4.4207    2.8831   -4.8681 H         1 <0>         0.0628
     59 H24        -2.4054    0.5890   -4.8349 H         1 <0>         0.0747
     60 H25        -4.0873    0.4999   -5.4129 H         1 <0>         0.0787
     61 H26        -3.8821   -0.3613   -3.0900 H         1 <0>         0.0916
     62 H27        -4.9027    1.0953   -3.1537 H         1 <0>         0.0543
@<TRIPOS>BOND
     1    1    2 1
     2    1   39 1
     3    1   40 1
     4    1   41 1
     5    2    3 1
     6    2    4 1
     7    2   19 1
     8    4    5 2
     9    4    6 am
    10    6    7 1
    11    6   42 1
    12    7   12 ar
    13    7    8 ar
    14    8    9 ar
    15    8   43 1
    16    9   10 ar
    17    9   44 1
    18   10   17 1
    19   10   11 ar
    20   11   12 ar
    21   11   13 1
    22   12   45 1
    23   13   14 1
    24   13   15 am
    25   15   16 2
    26   15   17 am
    27   17   18 1
    28   19   20 1
    29   20   24 1
    30   20   21 2
    31   21   22 1
    32   22   23 2
    33   23   24 1
    34   23   33 1
    35   24   25 1
    36   25   30 ar
    37   25   26 ar
    38   26   27 ar
    39   26   46 1
    40   27   28 ar
    41   27   47 1
    42   28   29 ar
    43   28   48 1
    44   29   30 ar
    45   29   49 1
    46   30   31 1
    47   31   32 1
    48   32   50 1
    49   32   51 1
    50   32   52 1
    51   33   38 1
    52   33   34 1
    53   34   35 1
    54   34   53 1
    55   34   54 1
    56   35   36 1
    57   35   55 1
    58   35   56 1
    59   36   37 1
    60   36   57 1
    61   36   58 1
    62   37   38 1
    63   37   59 1
    64   37   60 1
    65   38   61 1
    66   38   62 1
@<TRIPOS>MOLECULE
ZINC25980476
   62    64     0     0     0
SMALL
USER_CHARGES
N-(6-amino-1-isobutyl-2,4-dioxo-pyrimidin-5-yl)-2-[1-(difluoromethyl)benzimidazol-2-yl]sulfanyl-N-isobutyl-acetamide
@<TRIPOS>ATOM
      1 C1         -3.6198    2.5972    7.3461 C.3       1 <0>        -0.1436
      2 C2         -2.9226    3.6728    6.5107 C.3       1 <0>        -0.1147
      3 C3         -3.3187    5.0570    7.0283 C.3       1 <0>        -0.1475
      4 C4         -1.4063    3.5015    6.6215 C.3       1 <0>         0.1073
      5 N1         -1.0135    2.2261    6.0171 N.am      1 <0>        -0.5370
      6 C5         -0.6919    2.1731    4.6807 C.2       1 <0>         0.5109
      7 C6         -0.3240    0.9654    4.1237 C.2       1 <0>        -0.1710
      8 C7         -0.2949   -0.1794    4.9421 C.2       1 <0>         0.5704
      9 O1          0.0218   -1.2602    4.4745 O.2       1 <0>        -0.5281
     10 N2         -0.6137   -0.0720    6.2468 N.am      1 <0>        -0.6751
     11 H1         -0.5843   -0.9602    6.8951 H         1 <0>         0.4619
     12 C8         -0.9699    1.1136    6.7723 C.2       1 <0>         0.7111
     13 O2         -1.2575    1.1813    7.9519 O.2       1 <0>        -0.5329
     14 N3          0.0117    0.8786    2.7560 N.am      1 <0>        -0.5012
     15 C9          1.3507    0.4383    2.3570 C.3       1 <0>         0.1098
     16 C10         2.2450    1.6601    2.1374 C.3       1 <0>        -0.1134
     17 C11         2.4613    2.3799    3.4701 C.3       1 <0>        -0.1509
     18 C12         3.5952    1.2096    1.5761 C.3       1 <0>        -0.1484
     19 C13        -0.9007    1.2011    1.8156 C.2       1 <0>         0.5196
     20 O3         -2.0348    1.4826    2.1420 O.2       1 <0>        -0.5113
     21 C14        -0.5109    1.2116    0.3599 C.3       1 <0>        -0.1430
     22 S1         -1.9420    1.6798   -0.6444 S.3       1 <0>         0.0715
     23 C15        -1.2229    1.6131   -2.2516 C.2       1 <0>         0.2598
     24 N4          0.0226    1.2952   -2.5068 N.2       1 <0>        -0.4745
     25 C16         0.2404    1.3433   -3.8471 C.ar      1 <0>         0.0607
     26 C17         1.3609    1.1033   -4.6465 C.ar      1 <0>        -0.0638
     27 C18         1.2671    1.2378   -6.0136 C.ar      1 <0>        -0.1182
     28 C19         0.0685    1.6106   -6.6037 C.ar      1 <0>        -0.0927
     29 C20        -1.0470    1.8515   -5.8282 C.ar      1 <0>        -0.1047
     30 C21        -0.9709    1.7206   -4.4500 C.ar      1 <0>         0.0602
     31 N5         -1.8820    1.8793   -3.4185 N.pl3     1 <0>        -0.5261
     32 C22        -3.2890    2.2647   -3.5534 C.3       1 <0>         0.4812
     33 F1         -3.3721    3.5196   -4.1662 F         1 <0>        -0.1780
     34 F2         -3.9587    1.3182   -4.3362 F         1 <0>        -0.1772
     35 N6         -0.7360    3.3098    3.9094 N.pl3     1 <0>        -0.8450
     36 H2         -3.3350    1.6020    6.9739 H         1 <0>         0.0499
     37 H3         -4.7100    2.7204    7.2663 H         1 <0>         0.0563
     38 H4         -3.3157    2.6960    8.3986 H         1 <0>         0.0664
     39 H5         -3.2267    3.5741    5.4582 H         1 <0>         0.0772
     40 H6         -2.8174    5.8303    6.4277 H         1 <0>         0.0580
     41 H7         -3.0146    5.1557    8.0808 H         1 <0>         0.0626
     42 H8         -4.4089    5.1801    6.9485 H         1 <0>         0.0656
     43 H9         -0.9046    4.3267    6.0949 H         1 <0>         0.0911
     44 H10        -1.1127    3.5108    7.6816 H         1 <0>         0.1141
     45 H11         1.7802   -0.1929    3.1489 H         1 <0>         0.0962
     46 H12         1.2837   -0.1396    1.4234 H         1 <0>         0.0842
     47 H13         1.7617    2.3449    1.4250 H         1 <0>         0.0694
     48 H14         3.1043    3.2583    3.3122 H         1 <0>         0.0547
     49 H15         2.9445    1.6951    4.1825 H         1 <0>         0.0558
     50 H16         1.4906    2.7038    3.8737 H         1 <0>         0.0568
     51 H17         4.2382    2.0881    1.4182 H         1 <0>         0.0601
     52 H18         3.4397    0.6921    0.6180 H         1 <0>         0.0607
     53 H19         4.0784    0.5248    2.2886 H         1 <0>         0.0593
     54 H20         0.3006    1.9374    0.2029 H         1 <0>         0.1339
     55 H21        -0.1681    0.2089    0.0648 H         1 <0>         0.1353
     56 H22         2.2974    0.8130   -4.1936 H         1 <0>         0.1348
     57 H23         2.1335    1.0519   -6.6311 H         1 <0>         0.1358
     58 H24         0.0081    1.7132   -7.6771 H         1 <0>         0.1362
     59 H25        -1.9774    2.1411   -6.2938 H         1 <0>         0.1253
     60 H26        -3.7949    2.3242   -2.5785 H         1 <0>         0.1628
     61 H27        -0.4775    3.2601    2.8414 H         1 <0>         0.4427
     62 H28        -1.0298    4.2693    4.3601 H         1 <0>         0.4286
@<TRIPOS>BOND
     1    1    2 1
     2    1   36 1
     3    1   37 1
     4    1   38 1
     5    2    3 1
     6    2    4 1
     7    2   39 1
     8    3   40 1
     9    3   41 1
    10    3   42 1
    11    4    5 1
    12    4   43 1
    13    4   44 1
    14    5   12 am
    15    5    6 1
    16    6    7 2
    17    6   35 1
    18    7    8 1
    19    7   14 1
    20    8    9 2
    21    8   10 am
    22   10   11 1
    23   10   12 am
    24   12   13 2
    25   14   15 1
    26   14   19 am
    27   15   16 1
    28   15   45 1
    29   15   46 1
    30   16   17 1
    31   16   18 1
    32   16   47 1
    33   17   48 1
    34   17   49 1
    35   17   50 1
    36   18   51 1
    37   18   52 1
    38   18   53 1
    39   19   20 2
    40   19   21 1
    41   21   22 1
    42   21   54 1
    43   21   55 1
    44   22   23 1
    45   23   31 1
    46   23   24 2
    47   24   25 1
    48   25   30 ar
    49   25   26 ar
    50   26   27 ar
    51   26   56 1
    52   27   28 ar
    53   27   57 1
    54   28   29 ar
    55   28   58 1
    56   29   30 ar
    57   29   59 1
    58   30   31 1
    59   31   32 1
    60   32   33 1
    61   32   34 1
    62   32   60 1
    63   35   61 1
    64   35   62 1
@<TRIPOS>MOLECULE
ZINC41006169
   64    67     0     0     0
SMALL
USER_CHARGES

@<TRIPOS>ATOM
      1 C1         -0.3846    0.4853    0.0701 C.3       1 <0>        -0.1832
      2 C2          0.4465   -0.7927    0.2000 C.3       1 <0>         0.1540
      3 C3         -0.4810   -2.0118    0.1600 C.3       1 <0>        -0.2022
      4 C4          0.3436   -3.2523    0.4233 C.2       1 <0>         0.3900
      5 O1          0.2863   -4.2031   -0.3190 O.2       1 <0>        -0.4400
      6 C5          1.2422   -3.2712    1.6400 C.3       1 <0>        -0.1635
      7 H1          0.6338   -3.2889    2.5443 H         1 <0>         0.1547
      8 C6          2.1072   -2.0065    1.6264 C.3       1 <0>         0.0493
      9 H2          2.7789   -2.0346    0.7685 H         1 <0>         0.1340
     10 C7          1.2053   -0.7750    1.5280 C.3       1 <0>        -0.0952
     11 H3          1.8156    0.1264    1.5846 H         1 <0>         0.1146
     12 C8          0.2199   -0.7834    2.6682 C.2       1 <0>         0.5321
     13 O2         -0.5852   -1.6852    2.7673 O.2       1 <0>        -0.5183
     14 N1          0.2332    0.2111    3.5777 N.am      1 <0>        -0.6450
     15 C9         -0.6281    0.1622    4.6819 C.ar      1 <0>         0.1190
     16 C10        -1.8340   -0.5177    4.5937 C.ar      1 <0>        -0.0941
     17 C11        -2.6816   -0.5650    5.6842 C.ar      1 <0>        -0.1370
     18 C12        -2.3311    0.0647    6.8644 C.ar      1 <0>        -0.0950
     19 C13        -1.1310    0.7442    6.9598 C.ar      1 <0>        -0.1909
     20 C14        -0.2731    0.7914    5.8729 C.ar      1 <0>         0.1028
     21 O3          0.9102    1.4546    5.9669 O.3       1 <0>        -0.3185
     22 C15         1.2080    2.0759    7.2189 C.3       1 <0>         0.0292
     23 C16         2.9162   -1.9372    2.8960 C.2       1 <0>        -0.0278
     24 C17         4.2588   -1.9083    2.9727 C.2       1 <0>        -0.1624
     25 C18         4.5894   -1.8438    4.3458 C.2       1 <0>        -0.2142
     26 C19         3.4290   -1.8370    5.0261 C.2       1 <0>        -0.0329
     27 O4          2.4188   -1.8879    4.1426 O.3       1 <0>        -0.1707
     28 C20         2.1239   -4.4927    1.5992 C.2       1 <0>         0.5312
     29 O5          3.3304   -4.3693    1.5784 O.2       1 <0>        -0.5083
     30 N2          1.5719   -5.7221    1.5859 N.am      1 <0>        -0.6514
     31 C21         2.3907   -6.8583    1.6313 C.ar      1 <0>         0.1200
     32 C22         3.6234   -6.8531    0.9950 C.ar      1 <0>        -0.0821
     33 C23         4.4294   -7.9747    1.0416 C.ar      1 <0>        -0.1378
     34 C24         4.0102   -9.1038    1.7210 C.ar      1 <0>        -0.0947
     35 C25         2.7831   -9.1164    2.3574 C.ar      1 <0>        -0.1922
     36 C26         1.9715   -7.9940    2.3203 C.ar      1 <0>         0.1020
     37 O6          0.7667   -8.0030    2.9506 O.3       1 <0>        -0.3191
     38 C27         0.4027   -9.2021    3.6373 C.3       1 <0>         0.0289
     39 O7          1.3786   -0.8670   -0.8805 O.3       1 <0>        -0.5505
     40 H4          0.2594    1.3533    0.2109 H         1 <0>         0.0743
     41 H5         -0.8369    0.5253   -0.9208 H         1 <0>         0.0743
     42 H6         -1.1683    0.4876    0.8276 H         1 <0>         0.0708
     43 H7         -1.2489   -1.9129    0.9272 H         1 <0>         0.1378
     44 H8         -0.9480   -2.0843   -0.8222 H         1 <0>         0.1004
     45 H9          0.8390    0.9607    3.4679 H         1 <0>         0.4154
     46 H10        -2.1106   -1.0098    3.6730 H         1 <0>         0.1563
     47 H11        -3.6202   -1.0946    5.6144 H         1 <0>         0.1277
     48 H12        -2.9969    0.0257    7.7139 H         1 <0>         0.1256
     49 H13        -0.8605    1.2352    7.8829 H         1 <0>         0.1313
     50 H14         0.4396    2.8136    7.4502 H         1 <0>         0.0563
     51 H15         1.2332    1.3193    8.0031 H         1 <0>         0.0561
     52 H16         2.1783    2.5688    7.1582 H         1 <0>         0.1013
     53 H17         4.9514   -1.9308    2.1443 H         1 <0>         0.1475
     54 H18         5.5830   -1.8072    4.7675 H         1 <0>         0.1465
     55 H19         3.3270   -1.7939    6.1004 H         1 <0>         0.1967
     56 H20         0.6077   -5.8204    1.5448 H         1 <0>         0.4137
     57 H21         3.9530   -5.9729    0.4631 H         1 <0>         0.1454
     58 H22         5.3889   -7.9695    0.5459 H         1 <0>         0.1280
     59 H23         4.6431   -9.9783    1.7542 H         1 <0>         0.1264
     60 H24         2.4586  -10.0000    2.8869 H         1 <0>         0.1315
     61 H25         0.3690  -10.0303    2.9294 H         1 <0>         0.0565
     62 H26         1.1398   -9.4156    4.4114 H         1 <0>         0.0559
     63 H27        -0.5784   -9.0752    4.0949 H         1 <0>         0.1008
     64 H28         0.9665   -0.8825   -1.7552 H         1 <0>         0.3888
@<TRIPOS>BOND
     1    1    2 1
     2    1   40 1
     3    1   41 1
     4    1   42 1
     5    2   10 1
     6    2    3 1
     7    2   39 1
     8    3    4 1
     9    3   43 1
    10    3   44 1
    11    4    5 2
    12    4    6 1
    13    6    7 1
    14    6    8 1
    15    6   28 1
    16    8    9 1
    17    8   10 1
    18    8   23 1
    19   10   11 1
    20   10   12 1
    21   12   13 2
    22   12   14 am
    23   14   15 1
    24   14   45 1
    25   15   20 ar
    26   15   16 ar
    27   16   17 ar
    28   16   46 1
    29   17   18 ar
    30   17   47 1
    31   18   19 ar
    32   18   48 1
    33   19   20 ar
    34   19   49 1
    35   20   21 1
    36   21   22 1
    37   22   50 1
    38   22   51 1
    39   22   52 1
    40   23   27 1
    41   23   24 2
    42   24   25 1
    43   24   53 1
    44   25   26 2
    45   25   54 1
    46   26   27 1
    47   26   55 1
    48   28   29 2
    49   28   30 am
    50   30   31 1
    51   30   56 1
    52   31   36 ar
    53   31   32 ar
    54   32   33 ar
    55   32   57 1
    56   33   34 ar
    57   33   58 1
    58   34   35 ar
    59   34   59 1
    60   35   36 ar
    61   35   60 1
    62   36   37 1
    63   37   38 1
    64   38   61 1
    65   38   62 1
    66   38   63 1
    67   39   64 1
@<TRIPOS>MOLECULE
ZINC13412077
   49    53     0     0     0
SMALL
USER_CHARGES
4-fluoro-3-[[4-oxo-3-(p-tolyl)quinazolin-2-yl]sulfanylmethyl]benzothiophene-2-carboxylic acid
@<TRIPOS>ATOM
      1 C1         -4.8850   -2.8881    0.0342 C.3       1 <0>        -0.1155
      2 C2         -3.5873   -2.1219    0.0255 C.ar      1 <0>        -0.0690
      3 C3         -2.7466   -2.2012   -1.0695 C.ar      1 <0>        -0.1103
      4 C4         -1.5564   -1.5005   -1.0803 C.ar      1 <0>        -0.0794
      5 C5         -1.2046   -0.7156    0.0097 C.ar      1 <0>         0.0941
      6 C6         -2.0487   -0.6418    1.1098 C.ar      1 <0>        -0.0846
      7 C7         -3.2396   -1.3414    1.1127 C.ar      1 <0>        -0.1140
      8 N1          0.0021   -0.0041    0.0020 N.am      1 <0>        -0.4882
      9 C8          0.0343    1.2579   -0.4854 C.2       1 <0>         0.5577
     10 O1         -0.9684    1.7903   -0.9248 O.2       1 <0>        -0.5059
     11 C9          1.3245    1.9596   -0.4705 C.ar      1 <0>        -0.2101
     12 C10         1.4605    3.2618   -0.9499 C.ar      1 <0>        -0.0358
     13 C11         2.6853    3.8691   -0.9123 C.ar      1 <0>        -0.1524
     14 C12         3.7926    3.2030   -0.4028 C.ar      1 <0>        -0.0694
     15 C13         3.6879    1.9265    0.0731 C.ar      1 <0>        -0.1154
     16 C14         2.4493    1.2785    0.0487 C.ar      1 <0>         0.1825
     17 N2          2.3004    0.0149    0.5101 N.2       1 <0>        -0.5276
     18 C15         1.1386   -0.5904    0.4867 C.2       1 <0>         0.3818
     19 S1          1.0358   -2.2361    1.1080 S.3       1 <0>         0.0314
     20 C16         2.7592   -2.4958    1.5966 C.3       1 <0>        -0.0530
     21 C17         2.9148   -3.8794    2.1732 C.2       1 <0>        -0.1172
     22 C18         2.7436   -4.0901    3.5523 C.ar      1 <0>        -0.0975
     23 C19         2.4125   -3.1366    4.5529 C.ar      1 <0>         0.1350
     24 C20         2.2768   -3.5179    5.8619 C.ar      1 <0>        -0.1626
     25 C21         2.4501   -4.8395    6.2537 C.ar      1 <0>        -0.0831
     26 C22         2.7663   -5.7938    5.3085 C.ar      1 <0>        -0.0811
     27 C23         2.9069   -5.4267    3.9870 C.ar      1 <0>        -0.1194
     28 S2          3.2947   -6.3026    2.4922 S.3       1 <0>         0.1031
     29 C24         3.2266   -4.9248    1.3604 C.2       1 <0>        -0.0835
     30 C25         3.4519   -4.9204   -0.0899 C.2       1 <0>         0.5213
     31 O2          3.3655   -3.8814   -0.7154 O.co2     1 <0>        -0.5875
     32 F1          2.2352   -1.8416    4.2110 F         1 <0>        -0.1308
     33 H1         -4.7200   -3.8773    0.4614 H         1 <0>         0.0751
     34 H2         -5.6199   -2.3512    0.6340 H         1 <0>         0.0674
     35 H3         -5.2536   -2.9900   -0.9865 H         1 <0>         0.0685
     36 H4         -3.0207   -2.8119   -1.9170 H         1 <0>         0.1328
     37 H5         -0.8999   -1.5634   -1.9355 H         1 <0>         0.1294
     38 H6         -1.7758   -0.0356    1.9609 H         1 <0>         0.1257
     39 H7         -3.8981   -1.2818    1.9666 H         1 <0>         0.1308
     40 H8          0.6048    3.7871   -1.3478 H         1 <0>         0.1337
     41 H9          2.7928    4.8777   -1.2831 H         1 <0>         0.1289
     42 H10         4.7506    3.7013   -0.3829 H         1 <0>         0.1310
     43 H11         4.5574    1.4208    0.4664 H         1 <0>         0.1391
     44 H12         3.4039   -2.3912    0.7240 H         1 <0>         0.1389
     45 H13         3.0397   -1.7560    2.3463 H         1 <0>         0.1049
     46 H14         2.0294   -2.7747    6.6055 H         1 <0>         0.1349
     47 H15         2.3377   -5.1182    7.2911 H         1 <0>         0.1388
     48 H16         2.9035   -6.8239    5.6027 H         1 <0>         0.1348
     49 O3          3.7548   -6.0688   -0.7287 O.co2     1 <0>        -0.7285
@<TRIPOS>BOND
     1    1    2 1
     2    1   33 1
     3    1   34 1
     4    1   35 1
     5    2    7 ar
     6    2    3 ar
     7    3    4 ar
     8    3   36 1
     9    4    5 ar
    10    4   37 1
    11    5    6 ar
    12    5    8 1
    13    6    7 ar
    14    6   38 1
    15    7   39 1
    16    8   18 1
    17    8    9 am
    18    9   10 2
    19    9   11 1
    20   11   16 ar
    21   11   12 ar
    22   12   13 ar
    23   12   40 1
    24   13   14 ar
    25   13   41 1
    26   14   15 ar
    27   14   42 1
    28   15   16 ar
    29   15   43 1
    30   16   17 1
    31   17   18 2
    32   18   19 1
    33   19   20 1
    34   20   21 1
    35   20   44 1
    36   20   45 1
    37   21   29 2
    38   21   22 1
    39   22   27 ar
    40   22   23 ar
    41   23   24 ar
    42   23   32 1
    43   24   25 ar
    44   24   46 1
    45   25   26 ar
    46   25   47 1
    47   26   27 ar
    48   26   48 1
    49   27   28 1
    50   28   29 1
    51   29   30 1
    52   30   31 2
    53   30   49 1
@<TRIPOS>MOLECULE
ZINC02793483
   50    53     0     0     0
SMALL
USER_CHARGES
3-[3-[(2-chlorophenoxy)methyl]-4-methoxy-phenyl]-4-(3-methoxyphenyl)-1H-1,2,4-triazole-5-thione
@<TRIPOS>ATOM
      1 C1         -1.9291   -0.2253    1.9104 C.3       1 <0>         0.0256
      2 O1         -1.0800    0.9003    1.6781 O.3       1 <0>        -0.3135
      3 C2         -1.6709    2.0343    1.2179 C.ar      1 <0>         0.1352
      4 C3         -3.0406    2.0623    0.9947 C.ar      1 <0>        -0.2083
      5 C4         -3.6417    3.2127    0.5211 C.ar      1 <0>        -0.0740
      6 C5         -2.8834    4.3421    0.2790 C.ar      1 <0>        -0.1444
      7 C6         -1.5126    4.3198    0.5005 C.ar      1 <0>         0.1958
      8 C7         -0.9062    3.1634    0.9708 C.ar      1 <0>        -0.1206
      9 N1         -0.7431    5.4631    0.2500 N.pl3     1 <0>        -0.4677
     10 C8         -0.4853    6.0098   -0.9934 C.2       1 <0>         0.2104
     11 N2          0.2630    7.0657   -0.8342 N.2       1 <0>        -0.2978
     12 N3          0.5062    7.2226    0.5371 N.2       1 <0>        -0.3751
     13 C9         -0.1313    6.2229    1.1802 C.2       1 <0>         0.3972
     14 S1         -0.1563    5.9639    2.8723 S.3       1 <0>        -0.7588
     15 C10        -0.9755    5.4851   -2.2866 C.ar      1 <0>        -0.0278
     16 C11        -1.4317    4.1693   -2.3800 C.ar      1 <0>        -0.0656
     17 C12        -1.8877    3.6839   -3.5867 C.ar      1 <0>        -0.1991
     18 C13        -1.8932    4.5021   -4.7090 C.ar      1 <0>         0.1351
     19 C14        -1.4406    5.8117   -4.6198 C.ar      1 <0>        -0.1265
     20 C15        -0.9884    6.3061   -3.4148 C.ar      1 <0>        -0.0234
     21 C16        -1.4496    6.6958   -5.8402 C.3       1 <0>         0.1166
     22 O2         -0.9410    7.9864   -5.4973 O.3       1 <0>        -0.2947
     23 C17        -0.8814    8.9105   -6.4922 C.ar      1 <0>         0.1459
     24 C18        -1.2984    8.5802   -7.7732 C.ar      1 <0>        -0.2004
     25 C19        -1.2423    9.5229   -8.7815 C.ar      1 <0>        -0.0778
     26 C20        -0.7603   10.7918   -8.5178 C.ar      1 <0>        -0.1510
     27 C21        -0.3384   11.1228   -7.2436 C.ar      1 <0>        -0.0743
     28 C22        -0.3978   10.1849   -6.2294 C.ar      1 <0>        -0.0724
     29 Cl1         0.1325   10.6004   -4.6295 Cl        1 <0>        -0.0435
     30 O3         -2.3429    4.0200   -5.8968 O.3       1 <0>        -0.3177
     31 C23        -2.7944    2.6644   -5.9176 C.3       1 <0>         0.0238
     32 H1         -1.3269   -1.0691    2.2783 H         1 <0>         0.0989
     33 H2         -2.4249   -0.5107    0.9708 H         1 <0>         0.0537
     34 H3         -2.6891    0.0375    2.6609 H         1 <0>         0.0560
     35 H4         -3.6365    1.1825    1.1873 H         1 <0>         0.1288
     36 H5         -4.7069    3.2306    0.3440 H         1 <0>         0.1291
     37 H6         -3.3563    5.2413   -0.0874 H         1 <0>         0.1246
     38 H7          0.1597    3.1434    1.1435 H         1 <0>         0.1346
     39 H8         -1.4277    3.5324   -1.5078 H         1 <0>         0.1319
     40 H9         -2.2408    2.6658   -3.6598 H         1 <0>         0.1331
     41 H10        -0.6404    7.3261   -3.3453 H         1 <0>         0.1521
     42 H11        -0.8178    6.2485   -6.6217 H         1 <0>         0.0784
     43 H12        -2.4795    6.7949   -6.2136 H         1 <0>         0.0780
     44 H13        -1.6705    7.5879   -7.9813 H         1 <0>         0.1372
     45 H14        -1.5708    9.2670   -9.7780 H         1 <0>         0.1291
     46 H15        -0.7129   11.5256   -9.3089 H         1 <0>         0.1306
     47 H16         0.0380   12.1144   -7.0402 H         1 <0>         0.1381
     48 H17        -3.1286    2.4048   -6.9329 H         1 <0>         0.0999
     49 H18        -3.6320    2.5461   -5.2144 H         1 <0>         0.0575
     50 H19        -1.9702    1.9989   -5.6215 H         1 <0>         0.0573
@<TRIPOS>BOND
     1    1    2 1
     2    1   32 1
     3    1   33 1
     4    1   34 1
     5    2    3 1
     6    3    8 ar
     7    3    4 ar
     8    4    5 ar
     9    4   35 1
    10    5    6 ar
    11    5   36 1
    12    6    7 ar
    13    6   37 1
    14    7    8 ar
    15    7    9 1
    16    8   38 1
    17    9   13 1
    18    9   10 1
    19   10   11 2
    20   10   15 1
    21   11   12 1
    22   12   13 2
    23   13   14 1
    24   15   20 ar
    25   15   16 ar
    26   16   17 ar
    27   16   39 1
    28   17   18 ar
    29   17   40 1
    30   18   19 ar
    31   18   30 1
    32   19   20 ar
    33   19   21 1
    34   20   41 1
    35   21   22 1
    36   21   42 1
    37   21   43 1
    38   22   23 1
    39   23   28 ar
    40   23   24 ar
    41   24   25 ar
    42   24   44 1
    43   25   26 ar
    44   25   45 1
    45   26   27 ar
    46   26   46 1
    47   27   28 ar
    48   27   47 1
    49   28   29 1
    50   30   31 1
    51   31   48 1
    52   31   49 1
    53   31   50 1
@<TRIPOS>MOLECULE
ZINC35970285
   50    53     0     0     0
SMALL
USER_CHARGES

@<TRIPOS>ATOM
      1 C1         -0.0333    1.6156   -0.7999 C.3       1 <0>        -0.0927
      2 C2         -0.2669    0.1321   -0.9262 C.2       1 <0>         0.3019
      3 C3         -1.2389   -0.4774   -0.1564 C.2       1 <0>        -0.3893
      4 C4         -1.4354   -1.9682   -0.3192 C.3       1 <0>         0.2605
      5 H1         -2.4712   -2.1401   -0.6119 H         1 <0>         0.0763
      6 N1         -0.5608   -2.6626   -1.3014 N.pl3     1 <0>        -0.5147
      7 C5         -0.5645   -4.0081   -1.6118 C.2       1 <0>         0.2320
      8 C6          0.3176   -4.4396   -2.5403 C.2       1 <0>        -0.2907
      9 S1          1.1592   -2.9315   -2.9782 S.3       1 <0>         0.1577
     10 C7          0.3399   -1.8756   -1.9629 C.2       1 <0>         0.3211
     11 N2          0.4565   -0.5768   -1.7775 N.2       1 <0>        -0.5930
     12 C8         -1.4944   -4.9379   -0.9555 C.2       1 <0>        -0.4516
     13 C9         -1.3337   -6.2672   -1.1028 C.2       1 <0>         0.4917
     14 O1         -0.2202   -6.7528   -1.7044 O.3       1 <0>        -0.6834
     15 N3         -2.3062   -7.1379   -0.6395 N.pl3     1 <0>        -0.6828
     16 C10        -2.2078   -8.5059   -0.9133 C.ar      1 <0>         0.1652
     17 C11        -0.9602   -9.1026   -1.0391 C.ar      1 <0>        -0.1092
     18 C12        -0.8662  -10.4541   -1.3091 C.ar      1 <0>        -0.1133
     19 C13        -2.0124  -11.2139   -1.4547 C.ar      1 <0>        -0.1390
     20 C14        -3.2573  -10.6245   -1.3305 C.ar      1 <0>        -0.1375
     21 C15        -3.3593   -9.2733   -1.0546 C.ar      1 <0>         0.0323
     22 F1         -4.5754   -8.6986   -0.9276 F         1 <0>        -0.1477
     23 C16        -1.2247   -2.6136    1.0261 C.ar      1 <0>        -0.0594
     24 C17         0.0456   -2.6841    1.5676 C.ar      1 <0>        -0.0877
     25 C18         0.2397   -3.2759    2.8015 C.ar      1 <0>        -0.1095
     26 C19        -0.8363   -3.7981    3.4948 C.ar      1 <0>        -0.1118
     27 C20        -2.1074   -3.7279    2.9536 C.ar      1 <0>        -0.0336
     28 C21        -2.3019   -3.1298    1.7210 C.ar      1 <0>        -0.0670
     29 Cl1        -3.4590   -4.3834    3.8236 Cl        1 <0>        -0.0817
     30 C22        -2.0159    0.2603    0.7450 C.2       1 <0>         0.5341
     31 O2         -1.8403    1.4609    0.8603 O.2       1 <0>        -0.5470
     32 O3         -2.9607   -0.3588    1.4870 O.3       1 <0>        -0.3569
     33 C23        -3.7162    0.4555    2.3860 C.3       1 <0>         0.0416
     34 H2          0.7615    1.9176   -1.4819 H         1 <0>         0.0652
     35 H3         -0.9496    2.1503   -1.0502 H         1 <0>         0.0875
     36 H4          0.2571    1.8518    0.2238 H         1 <0>         0.0869
     37 H5          0.4724   -5.4393   -2.9185 H         1 <0>         0.2288
     38 H6         -2.3066   -4.5554   -0.3551 H         1 <0>         0.0911
     39 H7         -3.0555   -6.7989   -0.1252 H         1 <0>         0.3998
     40 H8         -0.0641   -8.5105   -0.9263 H         1 <0>         0.1675
     41 H9          0.1041  -10.9181   -1.4069 H         1 <0>         0.1222
     42 H10        -1.9353  -12.2701   -1.6665 H         1 <0>         0.1211
     43 H11        -4.1505  -11.2208   -1.4452 H         1 <0>         0.1262
     44 H12         0.8866   -2.2768    1.0260 H         1 <0>         0.1120
     45 H13         1.2321   -3.3306    3.2239 H         1 <0>         0.1263
     46 H14        -0.6844   -4.2611    4.4586 H         1 <0>         0.1270
     47 H15        -3.2947   -3.0707    1.3000 H         1 <0>         0.1285
     48 H16        -3.0432    0.9266    3.1024 H         1 <0>         0.0519
     49 H17        -4.2439    1.2252    1.8228 H         1 <0>         0.0521
     50 H18        -4.4377   -0.1642    2.9184 H         1 <0>         0.0905
@<TRIPOS>BOND
     1    1    2 1
     2    1   34 1
     3    1   35 1
     4    1   36 1
     5    2   11 1
     6    2    3 2
     7    3    4 1
     8    3   30 1
     9    4    5 1
    10    4    6 1
    11    4   23 1
    12    6   10 1
    13    6    7 1
    14    7    8 2
    15    7   12 1
    16    8    9 1
    17    8   37 1
    18    9   10 1
    19   10   11 2
    20   12   13 2
    21   12   38 1
    22   13   14 1
    23   13   15 1
    24   15   16 1
    25   15   39 1
    26   16   21 ar
    27   16   17 ar
    28   17   18 ar
    29   17   40 1
    30   18   19 ar
    31   18   41 1
    32   19   20 ar
    33   19   42 1
    34   20   21 ar
    35   20   43 1
    36   21   22 1
    37   23   28 ar
    38   23   24 ar
    39   24   25 ar
    40   24   44 1
    41   25   26 ar
    42   25   45 1
    43   26   27 ar
    44   26   46 1
    45   27   28 ar
    46   27   29 1
    47   28   47 1
    48   30   31 2
    49   30   32 1
    50   32   33 1
    51   33   48 1
    52   33   49 1
    53   33   50 1
@<TRIPOS>MOLECULE
ZINC40401104
   62    65     0     0     0
SMALL
USER_CHARGES

@<TRIPOS>ATOM
      1 C1          0.7850    1.5950    0.0227 C.3       1 <0>        -0.1083
      2 C2          1.3818    0.2650    0.4049 C.ar      1 <0>        -0.0979
      3 C3          2.4553   -0.2405   -0.3046 C.ar      1 <0>        -0.1183
      4 C4          3.0026   -1.4603    0.0459 C.ar      1 <0>        -0.1246
      5 C5          2.4769   -2.1747    1.1065 C.ar      1 <0>        -0.0435
      6 C6          1.4043   -1.6689    1.8164 C.ar      1 <0>        -0.0662
      7 C7          0.8596   -0.4467    1.4684 C.ar      1 <0>        -0.0883
      8 C8          0.8310   -2.4478    2.9721 C.3       1 <0>         0.2539
      9 H1          1.5132   -3.2694    3.1903 H         1 <0>         0.0796
     10 C9         -0.4859   -3.0422    2.5253 C.2       1 <0>        -0.3918
     11 C10        -1.6184   -2.7135    3.2454 C.2       1 <0>         0.3001
     12 N1         -1.5381   -1.9039    4.2887 N.2       1 <0>        -0.5975
     13 C11        -0.4253   -1.3538    4.7290 C.2       1 <0>         0.3201
     14 N2          0.8002   -1.5510    4.1582 N.pl3     1 <0>        -0.5118
     15 C12         1.8723   -0.9018    4.7372 C.2       1 <0>         0.2326
     16 C13         1.6273   -0.1267    5.8167 C.2       1 <0>        -0.3052
     17 S1         -0.1312   -0.3171    6.0158 S.3       1 <0>         0.1406
     18 C14         3.2322   -1.0487    4.1988 C.2       1 <0>        -0.4670
     19 C15         4.2764   -0.4977    4.8470 C.2       1 <0>         0.5012
     20 O1          4.0869    0.1105    6.0433 O.3       1 <0>        -0.7028
     21 N3          5.5434   -0.5526    4.2912 N.pl3     1 <0>        -0.7239
     22 C16         6.6965   -0.0555    5.0459 C.3       1 <0>         0.1204
     23 C17         7.9815   -0.8846    5.0000 C.3       1 <0>        -0.2123
     24 C18         7.9015    0.4447    4.2467 C.3       1 <0>        -0.2086
     25 C19        -2.9543   -3.2806    2.8393 C.3       1 <0>        -0.1109
     26 C20        -0.5552   -3.8969    1.4184 C.2       1 <0>         0.5397
     27 O2         -1.6227   -4.3867    1.0926 O.2       1 <0>        -0.5451
     28 O3          0.5614   -4.1787    0.7114 O.3       1 <0>        -0.3377
     29 C21         0.4092   -5.0200   -0.4336 C.3       1 <0>         0.1203
     30 C22        -0.6090   -4.3983   -1.3916 C.3       1 <0>        -0.1825
     31 C23         1.7566   -5.1631   -1.1442 C.3       1 <0>        -0.1389
     32 C24        -0.0830   -6.3995    0.0089 C.3       1 <0>        -0.1788
     33 C25         3.0730   -3.5051    1.4881 C.3       1 <0>        -0.1141
     34 H2          1.2920    2.3910    0.5682 H         1 <0>         0.0662
     35 H3          0.9075    1.7537   -1.0487 H         1 <0>         0.0605
     36 H4         -0.2760    1.6023    0.2721 H         1 <0>         0.0597
     37 H5          2.8659    0.3175   -1.1331 H         1 <0>         0.1126
     38 H6          3.8407   -1.8555   -0.5088 H         1 <0>         0.1141
     39 H7          0.0239   -0.0497    2.0256 H         1 <0>         0.1024
     40 H8          2.3191    0.4566    6.4063 H         1 <0>         0.2345
     41 H9          3.3941   -1.5986    3.2834 H         1 <0>         0.0956
     42 H10         5.6676   -0.9202    3.4022 H         1 <0>         0.3860
     43 H11         6.4621    0.4589    5.9778 H         1 <0>         0.1313
     44 H12         8.5928   -0.9159    5.9020 H         1 <0>         0.0912
     45 H13         7.9690   -1.8000    4.4083 H         1 <0>         0.0874
     46 H14         7.8363    0.4038    3.1594 H         1 <0>         0.0875
     47 H15         8.4600    1.2879    4.6530 H         1 <0>         0.0922
     48 H16        -3.0778   -4.2702    3.2793 H         1 <0>         0.0795
     49 H17        -3.7500   -2.6243    3.1918 H         1 <0>         0.0621
     50 H18        -3.0013   -3.3575    1.7530 H         1 <0>         0.1088
     51 H19        -0.2584   -3.4156   -1.7068 H         1 <0>         0.0547
     52 H20        -0.7251   -5.0401   -2.2650 H         1 <0>         0.0580
     53 H21        -1.5690   -4.2964   -0.8854 H         1 <0>         0.0885
     54 H22         2.4600   -5.6771   -0.4891 H         1 <0>         0.0624
     55 H23         1.6251   -5.7395   -2.0599 H         1 <0>         0.0679
     56 H24         2.1447   -4.1745   -1.3897 H         1 <0>         0.0654
     57 H25        -1.0430   -6.2975    0.5151 H         1 <0>         0.0829
     58 H26        -0.1991   -7.0412   -0.8645 H         1 <0>         0.0597
     59 H27         0.6424   -6.8423    0.6913 H         1 <0>         0.0553
     60 H28         3.8884   -3.3487    2.1944 H         1 <0>         0.0634
     61 H29         2.3067   -4.1276    1.9499 H         1 <0>         0.0764
     62 H30         3.4553   -4.0012    0.5960 H         1 <0>         0.0610
@<TRIPOS>BOND
     1    1    2 1
     2    1   34 1
     3    1   35 1
     4    1   36 1
     5    2    7 ar
     6    2    3 ar
     7    3    4 ar
     8    3   37 1
     9    4    5 ar
    10    4   38 1
    11    5    6 ar
    12    5   33 1
    13    6    7 ar
    14    6    8 1
    15    7   39 1
    16    8    9 1
    17    8   14 1
    18    8   10 1
    19   10   11 2
    20   10   26 1
    21   11   12 1
    22   11   25 1
    23   12   13 2
    24   13   17 1
    25   13   14 1
    26   14   15 1
    27   15   16 2
    28   15   18 1
    29   16   17 1
    30   16   40 1
    31   18   19 2
    32   18   41 1
    33   19   20 1
    34   19   21 1
    35   21   22 1
    36   21   42 1
    37   22   24 1
    38   22   23 1
    39   22   43 1
    40   23   24 1
    41   23   44 1
    42   23   45 1
    43   24   46 1
    44   24   47 1
    45   25   48 1
    46   25   49 1
    47   25   50 1
    48   26   27 2
    49   26   28 1
    50   28   29 1
    51   29   30 1
    52   29   31 1
    53   29   32 1
    54   30   51 1
    55   30   52 1
    56   30   53 1
    57   31   54 1
    58   31   55 1
    59   31   56 1
    60   32   57 1
    61   32   58 1
    62   32   59 1
    63   33   60 1
    64   33   61 1
    65   33   62 1
@<TRIPOS>MOLECULE
ZINC59247420
   59    61     0     0     0
SMALL
USER_CHARGES

@<TRIPOS>ATOM
      1 C1         -0.5916    1.4084   -0.8179 C.3       1 <0>        -0.1496
      2 C2         -0.4002   -0.0938   -0.5996 C.3       1 <0>         0.0508
      3 O1          0.7039   -0.5521   -1.3826 O.3       1 <0>        -0.3067
      4 C3          1.0107   -1.8745   -1.3028 C.ar      1 <0>         0.0989
      5 C4          0.2634   -2.7085   -0.4956 C.ar      1 <0>        -0.1535
      6 C5          0.5824   -4.0709   -0.4163 C.ar      1 <0>        -0.0548
      7 C6          1.6585   -4.5779   -1.1574 C.ar      1 <0>        -0.0979
      8 C7          2.3976   -3.7375   -1.9595 C.ar      1 <0>        -0.1690
      9 C8          2.0767   -2.3885   -2.0409 C.ar      1 <0>         0.1034
     10 O2          2.8067   -1.5661   -2.8382 O.3       1 <0>        -0.3003
     11 C9          3.8845   -2.1575   -3.5667 C.3       1 <0>         0.0831
     12 C10         4.5744   -1.1002   -4.3896 C.2       1 <0>        -0.1510
     13 C11         5.8828   -1.0399   -4.4148 C.2       1 <0>        -0.1752
     14 C12        -0.2066   -4.9626    0.4392 C.2       1 <0>        -0.0175
     15 C13        -0.1883   -6.3084    0.2216 C.2       1 <0>        -0.1205
     16 C14        -0.7668   -7.3321    1.0102 C.2       1 <0>         0.3478
     17 O3         -1.4433   -7.0324    2.1421 O.3       1 <0>        -0.5829
     18 C15        -0.6274   -8.6334    0.6023 C.2       1 <0>        -0.4225
     19 C16         0.1247   -8.8589   -0.6421 C.2       1 <0>         0.3019
     20 S1          0.5632   -7.1990   -1.1283 S.3       1 <0>        -0.1106
     21 N1          0.4011   -9.9995   -1.2475 N.2       1 <0>        -0.4938
     22 C17         1.1207   -9.9996   -2.4077 C.ar      1 <0>         0.1265
     23 C18         0.8239   -9.0804   -3.4186 C.ar      1 <0>        -0.1635
     24 C19         1.5554   -9.0864   -4.5875 C.ar      1 <0>        -0.0969
     25 C20         2.5809   -9.9994   -4.7615 C.ar      1 <0>        -0.1241
     26 C21         2.8804  -10.9126   -3.7656 C.ar      1 <0>        -0.1042
     27 C22         2.1619  -10.9150   -2.5886 C.ar      1 <0>        -0.1216
     28 C23         3.3752   -9.9995   -6.0422 C.3       1 <0>        -0.1052
     29 C24        -1.1979   -9.7431    1.3668 C.2       1 <0>         0.5371
     30 O4         -1.8145   -9.5220    2.3919 O.2       1 <0>        -0.5316
     31 O5         -1.0400  -11.0113    0.9347 O.3       1 <0>        -0.3409
     32 C25        -1.6233  -12.0451    1.7304 C.3       1 <0>         0.0630
     33 C26        -1.3420  -13.4043    1.0866 C.3       1 <0>        -0.1437
     34 H1          0.3124    1.9375   -0.5161 H         1 <0>         0.0648
     35 H2         -0.7897    1.5999   -1.8725 H         1 <0>         0.0648
     36 H3         -1.4337    1.7579   -0.2207 H         1 <0>         0.0766
     37 H4         -0.2020   -0.2854    0.4550 H         1 <0>         0.0621
     38 H5         -1.3041   -0.6229   -0.9014 H         1 <0>         0.0621
     39 H6         -0.5646   -2.3122    0.0735 H         1 <0>         0.1392
     40 H7          1.9081   -5.6271   -1.0990 H         1 <0>         0.1485
     41 H8          3.2267   -4.1291   -2.5302 H         1 <0>         0.1359
     42 H9          4.5970   -2.5969   -2.8686 H         1 <0>         0.0676
     43 H10         3.4951   -2.9338   -4.2253 H         1 <0>         0.0731
     44 H11         3.9902   -0.3922   -4.9587 H         1 <0>         0.1190
     45 H12         6.4670   -1.7480   -3.8458 H         1 <0>         0.0996
     46 H13         6.3772   -0.2822   -5.0046 H         1 <0>         0.1064
     47 H14        -0.8023   -4.5534    1.2418 H         1 <0>         0.1490
     48 H15         0.0234   -8.3679   -3.2845 H         1 <0>         0.1252
     49 H16         1.3273   -8.3771   -5.3693 H         1 <0>         0.1152
     50 H17         3.6818  -11.6223   -3.9088 H         1 <0>         0.1172
     51 H18         2.3999  -11.6250   -1.8104 H         1 <0>         0.1226
     52 H19         4.2308   -9.3321   -5.9391 H         1 <0>         0.0627
     53 H20         3.7258  -11.0100   -6.2522 H         1 <0>         0.0599
     54 H21         2.7434   -9.6565   -6.8616 H         1 <0>         0.0599
     55 H22        -1.1916  -12.0207    2.7310 H         1 <0>         0.0524
     56 H23        -2.7002  -11.8897    1.7954 H         1 <0>         0.0522
     57 H24        -0.2651  -13.5596    1.0217 H         1 <0>         0.0616
     58 H25        -1.7869  -14.1928    1.6936 H         1 <0>         0.0657
     59 H26        -1.7736  -13.4287    0.0860 H         1 <0>         0.0615
@<TRIPOS>BOND
     1    1    2 1
     2    1   34 1
     3    1   35 1
     4    1   36 1
     5    2    3 1
     6    2   37 1
     7    2   38 1
     8    3    4 1
     9    4    9 ar
    10    4    5 ar
    11    5    6 ar
    12    5   39 1
    13    6    7 ar
    14    6   14 1
    15    7    8 ar
    16    7   40 1
    17    8    9 ar
    18    8   41 1
    19    9   10 1
    20   10   11 1
    21   11   12 1
    22   11   42 1
    23   11   43 1
    24   12   13 2
    25   12   44 1
    26   13   45 1
    27   13   46 1
    28   14   15 2
    29   14   47 1
    30   15   20 1
    31   15   16 1
    32   16   17 1
    33   16   18 2
    34   18   19 1
    35   18   29 1
    36   19   21 2
    37   19   20 1
    38   21   22 1
    39   22   27 ar
    40   22   23 ar
    41   23   24 ar
    42   23   48 1
    43   24   25 ar
    44   24   49 1
    45   25   26 ar
    46   25   28 1
    47   26   27 ar
    48   26   50 1
    49   27   51 1
    50   28   52 1
    51   28   53 1
    52   28   54 1
    53   29   30 2
    54   29   31 1
    55   31   32 1
    56   32   33 1
    57   32   55 1
    58   32   56 1
    59   33   57 1
    60   33   58 1
    61   33   59 1
@<TRIPOS>MOLECULE
ZINC09243612
   59    63     0     0     0
SMALL
USER_CHARGES

@<TRIPOS>ATOM
      1 C1         -0.0187    1.5258    0.0104 C.3       1 <0>        -0.1375
      2 C2          0.0021   -0.0041    0.0020 C.3       1 <0>        -0.0563
      3 C3         -1.4328   -0.5385    0.0384 C.3       1 <0>        -0.1200
      4 C4         -1.4038   -2.0392    0.1034 C.2       1 <0>         0.3321
      5 C5         -0.3847   -2.7095    0.6857 C.2       1 <0>        -0.3957
      6 C6         -0.4465   -4.2158    0.6999 C.3       1 <0>         0.1408
      7 H1         -1.3436   -4.5319    1.2322 H         1 <0>         0.0487
      8 C7          0.7579   -4.7994    1.3758 C.2       1 <0>        -0.2134
      9 C8          1.7512   -4.0020    1.8942 C.2       1 <0>         0.2164
     10 N1          1.6941   -2.6684    1.8228 N.2       1 <0>        -0.6302
     11 C9          0.6976   -2.0262    1.2589 C.2       1 <0>         0.2931
     12 C10         0.7418   -0.5153    1.2409 C.3       1 <0>        -0.0655
     13 S1          3.1374   -4.7592    2.6749 S.3       1 <0>        -0.0986
     14 C11         4.1672   -3.3593    3.1949 C.3       1 <0>        -0.0556
     15 C12         5.4033   -3.8743    3.8861 C.ar      1 <0>        -0.0470
     16 C13         5.3931   -4.0835    5.2529 C.ar      1 <0>        -0.0721
     17 C14         6.5277   -4.5572    5.8904 C.ar      1 <0>         0.0381
     18 C15         7.6785   -4.8222    5.1516 C.ar      1 <0>         0.0433
     19 C16         7.6824   -4.6116    3.7827 C.ar      1 <0>        -0.0927
     20 C17         6.5440   -4.1423    3.1513 C.ar      1 <0>        -0.0146
     21 Cl1         6.5492   -3.8848    1.4345 Cl        1 <0>        -0.0357
     22 O1          8.6475   -5.2735    6.0005 O.3       1 <0>        -0.3051
     23 C18         8.2103   -4.8951    7.3192 C.3       1 <0>         0.2129
     24 O2          6.7761   -4.8427    7.2022 O.3       1 <0>        -0.3040
     25 C19         0.8766   -6.2223    1.4847 C.1       1 <0>         0.2821
     26 N2          0.9708   -7.3511    1.5711 N.1       1 <0>        -0.4834
     27 C20        -0.5095   -4.7214   -0.7184 C.ar      1 <0>        -0.0612
     28 C21         0.5178   -4.4367   -1.5989 C.ar      1 <0>        -0.0667
     29 C22         0.4622   -4.8986   -2.8996 C.ar      1 <0>        -0.1577
     30 C23        -0.6255   -5.6491   -3.3220 C.ar      1 <0>         0.1010
     31 C24        -1.6548   -5.9338   -2.4365 C.ar      1 <0>        -0.2093
     32 C25        -1.5919   -5.4739   -1.1354 C.ar      1 <0>        -0.0540
     33 O3         -0.6827   -6.1043   -4.6013 O.3       1 <0>        -0.3257
     34 C26        -1.8323   -6.8705   -4.9664 C.3       1 <0>         0.0316
     35 O4         -2.4239   -2.7374   -0.4341 O.3       1 <0>        -0.6255
     36 C27         0.7087   -0.5017   -1.2605 C.3       1 <0>        -0.1442
     37 H2          1.0039    1.9031    0.0027 H         1 <0>         0.0545
     38 H3         -0.5459    1.8868   -0.8726 H         1 <0>         0.0542
     39 H4         -0.5289    1.8773    0.9072 H         1 <0>         0.0536
     40 H5         -1.9448   -0.1462    0.9171 H         1 <0>         0.0785
     41 H6         -1.9611   -0.2236   -0.8615 H         1 <0>         0.0741
     42 H7          1.7790   -0.1817    1.2092 H         1 <0>         0.0794
     43 H8          0.2607   -0.1265    2.1384 H         1 <0>         0.0797
     44 H9          4.4561   -2.7763    2.3204 H         1 <0>         0.1105
     45 H10         3.6029   -2.7286    3.8818 H         1 <0>         0.1057
     46 H11         4.4998   -3.8770    5.8238 H         1 <0>         0.1493
     47 H12         8.5733   -4.8163    3.2075 H         1 <0>         0.1474
     48 H13         8.5077   -5.6457    8.0514 H         1 <0>         0.1331
     49 H14         8.6086   -3.9169    7.5886 H         1 <0>         0.0862
     50 H15         1.3643   -3.8525   -1.2695 H         1 <0>         0.1179
     51 H16         1.2646   -4.6754   -3.5872 H         1 <0>         0.1176
     52 H17        -2.5026   -6.5178   -2.7630 H         1 <0>         0.1150
     53 H18        -2.3909   -5.6990   -0.4444 H         1 <0>         0.1133
     54 H19        -1.8922   -7.7583   -4.3367 H         1 <0>         0.0498
     55 H20        -2.7297   -6.2670   -4.8298 H         1 <0>         0.0512
     56 H21        -1.7520   -7.1709   -6.0111 H         1 <0>         0.0913
     57 H22         1.7317   -0.1258   -1.2764 H         1 <0>         0.0500
     58 H23         0.7220   -1.5916   -1.2638 H         1 <0>         0.0698
     59 H24         0.1758   -0.1422   -2.1408 H         1 <0>         0.0494
@<TRIPOS>BOND
     1    1    2 1
     2    1   37 1
     3    1   38 1
     4    1   39 1
     5    2   12 1
     6    2    3 1
     7    2   36 1
     8    3    4 1
     9    3   40 1
    10    3   41 1
    11    4    5 2
    12    4   35 1
    13    5   11 1
    14    5    6 1
    15    6    7 1
    16    6    8 1
    17    6   27 1
    18    8    9 2
    19    8   25 1
    20    9   10 1
    21    9   13 1
    22   10   11 2
    23   11   12 1
    24   12   42 1
    25   12   43 1
    26   13   14 1
    27   14   15 1
    28   14   44 1
    29   14   45 1
    30   15   20 ar
    31   15   16 ar
    32   16   17 ar
    33   16   46 1
    34   17   24 1
    35   17   18 ar
    36   18   19 ar
    37   18   22 1
    38   19   20 ar
    39   19   47 1
    40   20   21 1
    41   22   23 1
    42   23   24 1
    43   23   48 1
    44   23   49 1
    45   25   26 3
    46   27   32 ar
    47   27   28 ar
    48   28   29 ar
    49   28   50 1
    50   29   30 ar
    51   29   51 1
    52   30   31 ar
    53   30   33 1
    54   31   32 ar
    55   31   52 1
    56   32   53 1
    57   33   34 1
    58   34   54 1
    59   34   55 1
    60   34   56 1
    61   36   57 1
    62   36   58 1
    63   36   59 1
@<TRIPOS>MOLECULE
ZINC09042264
   62    66     0     0     0
SMALL
USER_CHARGES
bromo-(4-isopropoxyphenyl)-(4-isopropylphenyl)-BLAH
@<TRIPOS>ATOM
      1 C1         -3.1149    0.7396    0.0154 C.3       1 <0>        -0.1452
      2 C2         -2.1643    0.6102   -1.1765 C.3       1 <0>        -0.0602
      3 C3         -2.8718    1.0855   -2.4471 C.3       1 <0>        -0.1447
      4 C4         -0.9402    1.4559   -0.9368 C.ar      1 <0>        -0.0547
      5 C5          0.3097    0.8668   -0.8962 C.ar      1 <0>        -0.1276
      6 C6          1.4331    1.6434   -0.6820 C.ar      1 <0>        -0.0839
      7 C7          1.3060    3.0082   -0.5033 C.ar      1 <0>        -0.1161
      8 C8          0.0556    3.5965   -0.5387 C.ar      1 <0>        -0.0592
      9 C9         -1.0678    2.8200   -0.7528 C.ar      1 <0>        -0.1249
     10 C10         2.5308    3.8548   -0.2703 C.3       1 <0>         0.4227
     11 H1          3.3922    3.4122   -0.7706 H         1 <0>         0.1025
     12 N1          2.3040    5.2176   -0.7674 N.pl3     1 <0>        -0.5587
     13 C11         3.3212    6.2750   -0.5689 C.3       1 <0>         0.1576
     14 H2          4.1555    6.1650   -1.2616 H         1 <0>         0.1008
     15 C12         2.5298    7.5613   -0.8419 C.3       1 <0>        -0.1152
     16 C13         1.2359    7.0618   -1.4521 C.2       1 <0>         0.0941
     17 N2          1.2000    5.7708   -1.3896 N.2       1 <0>        -0.1978
     18 C14         0.1811    7.9160   -2.0289 C.ar      1 <0>        -0.0606
     19 C15         0.3302    9.3050   -2.0359 C.ar      1 <0>        -0.0531
     20 C16        -0.6557   10.0991   -2.5813 C.ar      1 <0>        -0.2110
     21 C17        -1.8012    9.5210   -3.1124 C.ar      1 <0>         0.1461
     22 C18        -1.9560    8.1410   -3.1029 C.ar      1 <0>        -0.1537
     23 C19        -0.9728    7.3388   -2.5648 C.ar      1 <0>        -0.0464
     24 O1         -2.7733   10.3080   -3.6435 O.3       1 <0>        -0.3087
     25 C20        -2.4993   11.7078   -3.7306 C.3       1 <0>         0.0759
     26 C21        -3.3431   12.3241   -4.8481 C.3       1 <0>        -0.1504
     27 C22        -2.8461   12.3791   -2.4002 C.3       1 <0>        -0.1823
     28 C23         3.7604    6.1777    0.8688 C.ar      1 <0>        -0.1677
     29 C24         4.4398    7.2370    1.4407 C.ar      1 <0>        -0.0445
     30 C25         4.8678    7.1653    2.7531 C.ar      1 <0>        -0.1244
     31 C26         4.6146    6.0249    3.4947 C.ar      1 <0>        -0.0507
     32 C27         3.9321    4.9696    2.9298 C.ar      1 <0>        -0.1447
     33 C28         3.4886    5.0367    1.6088 C.ar      1 <0>         0.1707
     34 O2          2.7857    3.9757    1.1338 O.3       1 <0>        -0.3270
     35 Br1         5.7940    8.6186    3.5313 Br        1 <0>        -0.0448
     36 H3         -3.4108    1.7821    0.1326 H         1 <0>         0.0573
     37 H4         -4.0003    0.1280   -0.1579 H         1 <0>         0.0596
     38 H5         -2.6109    0.4011    0.9206 H         1 <0>         0.0562
     39 H6         -1.8685   -0.4323   -1.2936 H         1 <0>         0.0785
     40 H7         -2.1946    0.9932   -3.2962 H         1 <0>         0.0563
     41 H8         -3.7572    0.4738   -2.6204 H         1 <0>         0.0594
     42 H9         -3.1677    2.1280   -2.3299 H         1 <0>         0.0577
     43 H10         0.4089   -0.1994   -1.0361 H         1 <0>         0.1254
     44 H11         2.4100    1.1838   -0.6547 H         1 <0>         0.1248
     45 H12        -0.0436    4.6629   -0.3994 H         1 <0>         0.1400
     46 H13        -2.0446    3.2797   -0.7809 H         1 <0>         0.1232
     47 H14         2.3340    8.0956    0.0878 H         1 <0>         0.0984
     48 H15         3.0661    8.1997   -1.5440 H         1 <0>         0.1029
     49 H16         1.2185    9.7557   -1.6186 H         1 <0>         0.1293
     50 H17        -0.5392   11.1727   -2.5914 H         1 <0>         0.1345
     51 H18        -2.8484    7.6957   -3.5174 H         1 <0>         0.1346
     52 H19        -1.0941    6.2656   -2.5579 H         1 <0>         0.1364
     53 H20        -1.4419   11.8582   -3.9486 H         1 <0>         0.0752
     54 H21        -4.4005   12.1737   -4.6301 H         1 <0>         0.0680
     55 H22        -3.1341   13.3918   -4.9145 H         1 <0>         0.0783
     56 H23        -3.0960   11.8459   -5.7959 H         1 <0>         0.0657
     57 H24        -2.2449   11.9400   -1.6040 H         1 <0>         0.0637
     58 H25        -2.6371   13.4468   -2.4666 H         1 <0>         0.0735
     59 H26        -3.9035   12.2287   -2.1821 H         1 <0>         0.0686
     60 H27         4.6376    8.1252    0.8590 H         1 <0>         0.1378
     61 H28         4.9531    5.9616    4.5184 H         1 <0>         0.1410
     62 H29         3.7389    4.0826    3.5148 H         1 <0>         0.1416
@<TRIPOS>BOND
     1    1    2 1
     2    1   36 1
     3    1   37 1
     4    1   38 1
     5    2    3 1
     6    2    4 1
     7    2   39 1
     8    3   40 1
     9    3   41 1
    10    3   42 1
    11    4    9 ar
    12    4    5 ar
    13    5    6 ar
    14    5   43 1
    15    6    7 ar
    16    6   44 1
    17    7    8 ar
    18    7   10 1
    19    8    9 ar
    20    8   45 1
    21    9   46 1
    22   10   11 1
    23   10   34 1
    24   10   12 1
    25   12   17 1
    26   12   13 1
    27   13   14 1
    28   13   15 1
    29   13   28 1
    30   15   16 1
    31   15   47 1
    32   15   48 1
    33   16   17 2
    34   16   18 1
    35   18   23 ar
    36   18   19 ar
    37   19   20 ar
    38   19   49 1
    39   20   21 ar
    40   20   50 1
    41   21   22 ar
    42   21   24 1
    43   22   23 ar
    44   22   51 1
    45   23   52 1
    46   24   25 1
    47   25   26 1
    48   25   27 1
    49   25   53 1
    50   26   54 1
    51   26   55 1
    52   26   56 1
    53   27   57 1
    54   27   58 1
    55   27   59 1
    56   28   33 ar
    57   28   29 ar
    58   29   30 ar
    59   29   60 1
    60   30   31 ar
    61   30   35 1
    62   31   32 ar
    63   31   61 1
    64   32   33 ar
    65   32   62 1
    66   33   34 1
@<TRIPOS>MOLECULE
ZINC02298898
   55    59     0     0     0
SMALL
USER_CHARGES
(3,4-dichlorophenyl)methylsulfanyl-isopropyl-dimethyl-BLAH
@<TRIPOS>ATOM
      1 C1          3.8048    9.9595   -1.2266 C.3       1 <0>        -0.1430
      2 C2          4.4747    9.3586    0.0107 C.3       1 <0>        -0.0518
      3 C3          3.8347    9.9430    1.2716 C.3       1 <0>        -0.1440
      4 C4          4.2943    7.8625    0.0030 C.ar      1 <0>         0.2022
      5 C5          5.4101    7.0343   -0.0158 C.ar      1 <0>        -0.1823
      6 C6          5.2483    5.6707   -0.0199 C.ar      1 <0>         0.0524
      7 C7          3.9434    5.1272   -0.0094 C.ar      1 <0>        -0.1516
      8 C8          3.5600    3.7030   -0.0123 C.ar      1 <0>         0.2143
      9 C9          2.1852    3.4398   -0.0061 C.ar      1 <0>        -0.2247
     10 C10         1.7084    2.1353   -0.0028 C.ar      1 <0>         0.2114
     11 N1          2.5942    1.1388   -0.0166 N.ar      1 <0>        -0.5081
     12 C11         3.8873    1.4048   -0.0274 C.ar      1 <0>         0.3189
     13 N2          4.3716    2.6214   -0.0255 N.ar      1 <0>        -0.4992
     14 S1         -0.0225    1.8057    0.0120 S.3       1 <0>        -0.0026
     15 C12         0.0021   -0.0041    0.0020 C.3       1 <0>        -0.0663
     16 C13        -1.4117   -0.5257    0.0127 C.ar      1 <0>        -0.0700
     17 C14        -2.0465   -0.7766    1.2151 C.ar      1 <0>        -0.0826
     18 C15        -3.3451   -1.2496    1.2264 C.ar      1 <0>        -0.0960
     19 C16        -4.0066   -1.4831    0.0340 C.ar      1 <0>        -0.0239
     20 C17        -3.3690   -1.2372   -1.1701 C.ar      1 <0>        -0.0309
     21 C18        -2.0711   -0.7583   -1.1794 C.ar      1 <0>        -0.0797
     22 Cl1        -4.1979   -1.5290   -2.6672 Cl        1 <0>        -0.0405
     23 Cl2        -5.6354   -2.0834    0.0475 Cl        1 <0>        -0.0412
     24 S2          1.4224    5.0386    0.0163 S.3       1 <0>         0.1633
     25 C19         2.8825    6.0498    0.0075 C.ar      1 <0>         0.1293
     26 N3          3.0798    7.3509    0.0137 N.ar      1 <0>        -0.4422
     27 C20         6.4232    4.7306   -0.0313 C.3       1 <0>        -0.1062
     28 C21         7.6845    5.4892   -0.4514 C.3       1 <0>         0.1080
     29 O1          7.7685    6.6925    0.3204 O.3       1 <0>        -0.3618
     30 C22         6.7809    7.6604   -0.0341 C.3       1 <0>         0.1065
     31 C23         8.9175    4.6223   -0.1880 C.3       1 <0>        -0.1372
     32 C24         7.6038    5.8371   -1.9391 C.3       1 <0>        -0.1816
     33 H1          2.7411    9.7217   -1.2155 H         1 <0>         0.0685
     34 H2          3.9352   11.0416   -1.2210 H         1 <0>         0.0677
     35 H3          4.2607    9.5432   -2.1249 H         1 <0>         0.0546
     36 H4          5.5384    9.5965   -0.0004 H         1 <0>         0.0946
     37 H5          4.3119    9.5149    2.1531 H         1 <0>         0.0558
     38 H6          3.9651   11.0251    1.2772 H         1 <0>         0.0677
     39 H7          2.7710    9.7052    1.2828 H         1 <0>         0.0684
     40 H8          4.5809    0.5770   -0.0387 H         1 <0>         0.2068
     41 H9          0.5123   -0.3556   -0.8948 H         1 <0>         0.1137
     42 H10         0.5293   -0.3651    0.8851 H         1 <0>         0.1152
     43 H11        -1.5287   -0.5990    2.1461 H         1 <0>         0.1439
     44 H12        -3.8417   -1.4416    2.1660 H         1 <0>         0.1484
     45 H13        -1.5730   -0.5666   -2.1183 H         1 <0>         0.1468
     46 H14         6.5650    4.3150    0.9663 H         1 <0>         0.0995
     47 H15         6.2340    3.9220   -0.7373 H         1 <0>         0.1082
     48 H16         6.8111    8.4849    0.6782 H         1 <0>         0.1140
     49 H17         6.9894    8.0395   -1.0346 H         1 <0>         0.0755
     50 H18         8.8421    3.6992   -0.7627 H         1 <0>         0.0749
     51 H19         9.8139    5.1649   -0.4880 H         1 <0>         0.0682
     52 H20         8.9747    4.3852    0.8743 H         1 <0>         0.0669
     53 H21         6.7290    6.4619   -2.1192 H         1 <0>         0.0599
     54 H22         8.5031    6.3770   -2.2353 H         1 <0>         0.0707
     55 H23         7.5217    4.9202   -2.5228 H         1 <0>         0.0710
@<TRIPOS>BOND
     1    1    2 1
     2    1   33 1
     3    1   34 1
     4    1   35 1
     5    2    3 1
     6    2    4 1
     7    2   36 1
     8    3   37 1
     9    3   38 1
    10    3   39 1
    11    4   26 ar
    12    4    5 ar
    13    5   30 1
    14    5    6 ar
    15    6    7 ar
    16    6   27 1
    17    7   25 ar
    18    7    8 1
    19    8   13 ar
    20    8    9 ar
    21    9   10 ar
    22    9   24 1
    23   10   11 ar
    24   10   14 1
    25   11   12 ar
    26   12   13 ar
    27   12   40 1
    28   14   15 1
    29   15   16 1
    30   15   41 1
    31   15   42 1
    32   16   21 ar
    33   16   17 ar
    34   17   18 ar
    35   17   43 1
    36   18   19 ar
    37   18   44 1
    38   19   20 ar
    39   19   23 1
    40   20   21 ar
    41   20   22 1
    42   21   45 1
    43   24   25 1
    44   25   26 ar
    45   27   28 1
    46   27   46 1
    47   27   47 1
    48   28   29 1
    49   28   31 1
    50   28   32 1
    51   29   30 1
    52   30   48 1
    53   30   49 1
    54   31   50 1
    55   31   51 1
    56   31   52 1
    57   32   53 1
    58   32   54 1
    59   32   55 1
@<TRIPOS>MOLECULE
ZINC27300065
   74    80     0     0     0
SMALL
USER_CHARGES
N-(3,4-dimethylphenyl)-phenyl-tetralin-6-yl-BLAHcarbothioamide
@<TRIPOS>ATOM
      1 C1        -11.4713    3.7960    4.1210 C.3       1 <0>        -0.1154
      2 C2        -10.1114    3.4580    3.5667 C.ar      1 <0>        -0.0826
      3 C3         -8.9743    3.7736    4.2881 C.ar      1 <0>        -0.1119
      4 C4         -7.7269    3.4605    3.7855 C.ar      1 <0>        -0.1289
      5 C5         -7.6143    2.8378    2.5486 C.ar      1 <0>         0.1164
      6 C6         -8.7583    2.5219    1.8270 C.ar      1 <0>        -0.0671
      7 C7        -10.0032    2.8327    2.3383 C.ar      1 <0>        -0.0783
      8 C8        -11.2449    2.4903    1.5560 C.3       1 <0>        -0.1116
      9 N1         -6.3529    2.5247    2.0342 N.pl3     1 <0>        -0.6274
     10 C9         -6.0892    2.7252    0.7278 C.2       1 <0>         0.4075
     11 S1         -7.2489    3.4911   -0.2719 S.2       1 <0>        -0.5549
     12 C10        -4.8584    2.3042    0.1845 C.2       1 <0>        -0.0805
     13 C11        -4.4564    2.4526   -1.1619 C.2       1 <0>         0.0766
     14 C12        -3.1888    1.9000   -1.2719 C.2       1 <0>        -0.1916
     15 C13        -2.8498    1.5069   -0.0074 C.2       1 <0>         0.2457
     16 N2         -3.8387    1.6759    0.8809 N.pl3     1 <0>        -0.3442
     17 C14        -3.3484    1.1698    2.0710 C.2       1 <0>        -0.0503
     18 C15        -2.0351    0.8532    1.9122 C.2       1 <0>         0.1480
     19 N3         -1.6762    1.1583    0.6272 N.pl3     1 <0>        -0.4648
     20 C16        -0.4359    1.2565   -0.1330 C.3       1 <0>         0.1236
     21 C17        -0.4138    0.2540   -1.2710 C.3       1 <0>        -0.1385
     22 C18        -1.6260    0.2868   -2.2113 C.3       1 <0>        -0.1241
     23 C19        -2.2603    1.6660   -2.4495 C.3       1 <0>        -0.0386
     24 C20        -1.1489    0.2781    2.9483 C.ar      1 <0>        -0.0352
     25 C21         0.0583   -0.3194    2.5845 C.ar      1 <0>        -0.1077
     26 C22         0.8831   -0.8482    3.5559 C.ar      1 <0>        -0.1125
     27 C23         0.5096   -0.7979    4.8871 C.ar      1 <0>        -0.1047
     28 C24        -0.6888   -0.2119    5.2537 C.ar      1 <0>        -0.1118
     29 C25        -1.5196    0.3261    4.2925 C.ar      1 <0>        -0.0933
     30 C26        -5.2405    3.0808   -2.2507 C.ar      1 <0>        -0.0197
     31 C27        -4.7929    4.2580   -2.8503 C.ar      1 <0>        -0.0919
     32 C28        -5.5298    4.8287   -3.8633 C.ar      1 <0>        -0.1338
     33 C29        -6.7222    4.2518   -4.2868 C.ar      1 <0>        -0.0630
     34 C30        -7.1705    3.0900   -3.6965 C.ar      1 <0>        -0.0844
     35 C31        -6.4322    2.5041   -2.6793 C.ar      1 <0>        -0.0233
     36 C32        -8.4475    2.4087   -4.1146 C.3       1 <0>        -0.0766
     37 C33        -9.3350    3.3685   -4.9043 C.3       1 <0>        -0.1202
     38 C34        -8.4942    3.9941   -6.0234 C.3       1 <0>        -0.1192
     39 C35        -7.4799    4.9441   -5.3900 C.3       1 <0>        -0.0808
     40 H1        -11.3571    4.2855    5.0994 H         1 <0>         0.0639
     41 H2        -12.0588    2.8735    4.2388 H         1 <0>         0.0701
     42 H3        -11.9906    4.4756    3.4293 H         1 <0>         0.0710
     43 H4         -9.0623    4.2617    5.2475 H         1 <0>         0.1251
     44 H5         -6.8395    3.7031    4.3513 H         1 <0>         0.1193
     45 H6         -8.6744    2.0334    0.8674 H         1 <0>         0.1395
     46 H7        -10.9606    2.0014    0.6125 H         1 <0>         0.0659
     47 H8        -11.8061    3.4108    1.3375 H         1 <0>         0.0707
     48 H9        -11.8743    1.8087    2.1470 H         1 <0>         0.0680
     49 H10        -5.5755    2.1147    2.6956 H         1 <0>         0.4160
     50 H11        -3.9173    1.0455    2.9806 H         1 <0>         0.1846
     51 H12        -0.3427    2.2687   -0.5533 H         1 <0>         0.0967
     52 H13         0.4179    1.0550    0.5307 H         1 <0>         0.1026
     53 H14         0.4697    0.4340   -1.9011 H         1 <0>         0.0911
     54 H15        -0.3699   -0.7656   -0.8606 H         1 <0>         0.0713
     55 H16        -1.3313   -0.0878   -3.2027 H         1 <0>         0.0730
     56 H17        -2.4250   -0.3488   -1.8019 H         1 <0>         0.0620
     57 H18        -2.8412    1.6832   -3.3835 H         1 <0>         0.0865
     58 H19        -1.4972    2.4577   -2.4777 H         1 <0>         0.0720
     59 H20         0.3487   -0.3635    1.5452 H         1 <0>         0.1258
     60 H21         1.8202   -1.3064    3.2761 H         1 <0>         0.1306
     61 H22         1.1565   -1.2176    5.6433 H         1 <0>         0.1295
     62 H23        -0.9748   -0.1757    6.2945 H         1 <0>         0.1321
     63 H24        -2.4547    0.7836    4.5799 H         1 <0>         0.1287
     64 H25        -3.8710    4.7167   -2.5246 H         1 <0>         0.1125
     65 H26        -5.1808    5.7375   -4.3309 H         1 <0>         0.1142
     66 H27        -6.7846    1.5943   -2.2163 H         1 <0>         0.1095
     67 H28        -8.2099    1.5408   -4.7473 H         1 <0>         0.0685
     68 H29        -8.9933    2.0724   -3.2208 H         1 <0>         0.0710
     69 H30       -10.1822    2.8144   -5.3347 H         1 <0>         0.0631
     70 H31        -9.7134    4.1540   -4.2336 H         1 <0>         0.0642
     71 H32        -7.9717    3.2001   -6.5770 H         1 <0>         0.0640
     72 H33        -9.1514    4.5481   -6.7098 H         1 <0>         0.0638
     73 H34        -8.0142    5.8131   -4.9785 H         1 <0>         0.0730
     74 H35        -6.7746    5.2803   -6.1643 H         1 <0>         0.0711
@<TRIPOS>BOND
     1    1    2 1
     2    1   40 1
     3    1   41 1
     4    1   42 1
     5    2    7 ar
     6    2    3 ar
     7    3    4 ar
     8    3   43 1
     9    4    5 ar
    10    4   44 1
    11    5    6 ar
    12    5    9 1
    13    6    7 ar
    14    6   45 1
    15    7    8 1
    16    8   46 1
    17    8   47 1
    18    8   48 1
    19    9   10 1
    20    9   49 1
    21   10   11 2
    22   10   12 1
    23   12   16 1
    24   12   13 2
    25   13   14 1
    26   13   30 1
    27   14   23 1
    28   14   15 2
    29   15   19 1
    30   15   16 1
    31   16   17 1
    32   17   18 2
    33   17   50 1
    34   18   19 1
    35   18   24 1
    36   19   20 1
    37   20   21 1
    38   20   51 1
    39   20   52 1
    40   21   22 1
    41   21   53 1
    42   21   54 1
    43   22   23 1
    44   22   55 1
    45   22   56 1
    46   23   57 1
    47   23   58 1
    48   24   29 ar
    49   24   25 ar
    50   25   26 ar
    51   25   59 1
    52   26   27 ar
    53   26   60 1
    54   27   28 ar
    55   27   61 1
    56   28   29 ar
    57   28   62 1
    58   29   63 1
    59   30   35 ar
    60   30   31 ar
    61   31   32 ar
    62   31   64 1
    63   32   33 ar
    64   32   65 1
    65   33   39 1
    66   33   34 ar
    67   34   35 ar
    68   34   36 1
    69   35   66 1
    70   36   37 1
    71   36   67 1
    72   36   68 1
    73   37   38 1
    74   37   69 1
    75   37   70 1
    76   38   39 1
    77   38   71 1
    78   38   72 1
    79   39   73 1
    80   39   74 1
@<TRIPOS>MOLECULE
ZINC40057912
   68    73     0     0     0
SMALL
USER_CHARGES

@<TRIPOS>ATOM
      1 C1         -0.5228    1.4503    0.0381 C.3       1 <0>        -0.1236
      2 C2         -0.2372   -0.0292    0.0154 C.ar      1 <0>        -0.0111
      3 C3         -0.2333   -0.7079   -1.1953 C.ar      1 <0>        -0.1481
      4 C4          0.0271   -2.0495   -1.2314 C.ar      1 <0>         0.0136
      5 C5          0.2887   -2.7353   -0.0455 C.ar      1 <0>        -0.2222
      6 C6          0.2820   -2.0602    1.1860 C.ar      1 <0>         0.1510
      7 C7          0.0220   -0.6897    1.1951 C.ar      1 <0>        -0.1462
      8 O1          0.5182   -2.6919    2.3583 O.3       1 <0>        -0.1770
      9 C8          1.0004   -3.9503    2.3515 C.2       1 <0>         0.0967
     10 C9          1.0500   -4.7144    1.2198 C.2       1 <0>        -0.2362
     11 C10         0.5813   -4.1908   -0.0673 C.2       1 <0>         0.4608
     12 O2          0.4449   -4.8839   -1.0599 O.2       1 <0>        -0.4223
     13 C11         1.6297   -6.0399    1.5907 C.3       1 <0>         0.2350
     14 H1          2.5505   -6.2165    1.0347 H         1 <0>         0.1321
     15 N1          1.9139   -5.9639    3.0331 N.am      1 <0>        -0.5007
     16 C12         1.5442   -4.7419    3.4677 C.2       1 <0>         0.5724
     17 O3          1.6454   -4.3509    4.6136 O.2       1 <0>        -0.4255
     18 C13         2.4638   -6.9703    3.8075 C.2       1 <0>         0.3827
     19 N2          2.7351   -6.9658    5.0921 N.2       1 <0>        -0.5062
     20 C14         3.2761   -8.0298    5.7234 C.ar      1 <0>         0.0914
     21 C15         3.6149   -8.1545    7.0909 C.ar      1 <0>        -0.0192
     22 C16         4.1616   -9.3145    7.5736 C.ar      1 <0>        -0.1130
     23 C17         4.4022  -10.4021    6.7462 C.ar      1 <0>        -0.0554
     24 C18         4.0832  -10.3153    5.4036 C.ar      1 <0>        -0.0727
     25 C19         3.5348   -9.1575    4.9109 C.ar      1 <0>        -0.1405
     26 S1          2.9782   -8.6096    3.3151 S.3       1 <0>         0.0471
     27 C20         5.0056  -11.6649    7.3051 C.3       1 <0>        -0.1141
     28 C21         3.3724   -6.9988    8.0271 C.3       1 <0>        -0.1150
     29 C22         0.6361   -7.1382    1.3121 C.ar      1 <0>        -0.1176
     30 C23        -0.3926   -7.3818    2.2028 C.ar      1 <0>        -0.0920
     31 C24        -1.3040   -8.3893    1.9473 C.ar      1 <0>        -0.1117
     32 C25        -1.1870   -9.1528    0.8009 C.ar      1 <0>        -0.0502
     33 C26        -0.1588   -8.9086   -0.0902 C.ar      1 <0>        -0.1165
     34 C27         0.7501   -7.8984    0.1632 C.ar      1 <0>        -0.0725
     35 C28        -2.1800  -10.2518    0.5228 C.3       1 <0>        -0.0321
     36 C29        -3.5863   -9.6565    0.4284 C.3       1 <0>        -0.1396
     37 C30        -1.8262  -10.9364   -0.7989 C.3       1 <0>        -0.1457
     38 C31        -2.1356  -11.2781    1.6566 C.3       1 <0>        -0.1393
     39 C32         0.0310   -2.7843   -2.5471 C.3       1 <0>        -0.1358
     40 H2          0.4112    2.0022   -0.0674 H         1 <0>         0.0834
     41 H3         -1.1900    1.7043   -0.7855 H         1 <0>         0.0775
     42 H4         -0.9960    1.7145    0.9838 H         1 <0>         0.0762
     43 H5         -0.4371   -0.1743   -2.1119 H         1 <0>         0.1398
     44 H6          0.0197   -0.1472    2.1290 H         1 <0>         0.1477
     45 H7          4.4112   -9.3837    8.6221 H         1 <0>         0.1357
     46 H8          4.2648  -11.1531    4.7466 H         1 <0>         0.1345
     47 H9          4.2099  -12.3302    7.6404 H         1 <0>         0.0772
     48 H10         5.5919  -12.1608    6.5315 H         1 <0>         0.0714
     49 H11         5.6512  -11.4171    8.1476 H         1 <0>         0.0730
     50 H12         2.3724   -7.0801    8.4533 H         1 <0>         0.0748
     51 H13         4.1114   -7.0189    8.8281 H         1 <0>         0.0694
     52 H14         3.4579   -6.0616    7.4772 H         1 <0>         0.0778
     53 H15        -0.4841   -6.7853    3.0984 H         1 <0>         0.1123
     54 H16        -2.1074   -8.5801    2.6434 H         1 <0>         0.1238
     55 H17        -0.0671   -9.5054   -0.9857 H         1 <0>         0.1333
     56 H18         1.5512   -7.7051   -0.5349 H         1 <0>         0.1291
     57 H19        -3.6179   -8.9253   -0.3793 H         1 <0>         0.0575
     58 H20        -4.3045  -10.4514    0.2273 H         1 <0>         0.0606
     59 H21        -3.8383   -9.1688    1.3701 H         1 <0>         0.0565
     60 H22        -0.8243  -11.3604   -0.7317 H         1 <0>         0.0600
     61 H23        -2.5444  -11.7312   -1.0001 H         1 <0>         0.0600
     62 H24        -1.8578  -10.2052   -1.6067 H         1 <0>         0.0601
     63 H25        -2.3877  -10.7904    2.5983 H         1 <0>         0.0565
     64 H26        -2.8539  -12.0730    1.4555 H         1 <0>         0.0604
     65 H27        -1.1338  -11.7022    1.7239 H         1 <0>         0.0576
     66 H28         1.0541   -2.8670   -2.9140 H         1 <0>         0.0805
     67 H29        -0.3867   -3.7814   -2.4076 H         1 <0>         0.1013
     68 H30        -0.5715   -2.2360   -3.2713 H         1 <0>         0.0713
@<TRIPOS>BOND
     1    1    2 1
     2    1   40 1
     3    1   41 1
     4    1   42 1
     5    2    7 ar
     6    2    3 ar
     7    3    4 ar
     8    3   43 1
     9    4    5 ar
    10    4   39 1
    11    5   11 1
    12    5    6 ar
    13    6    7 ar
    14    6    8 1
    15    7   44 1
    16    8    9 1
    17    9   16 1
    18    9   10 2
    19   10   11 1
    20   10   13 1
    21   11   12 2
    22   13   14 1
    23   13   15 1
    24   13   29 1
    25   15   16 am
    26   15   18 1
    27   16   17 2
    28   18   26 1
    29   18   19 2
    30   19   20 1
    31   20   25 ar
    32   20   21 ar
    33   21   22 ar
    34   21   28 1
    35   22   23 ar
    36   22   45 1
    37   23   24 ar
    38   23   27 1
    39   24   25 ar
    40   24   46 1
    41   25   26 1
    42   27   47 1
    43   27   48 1
    44   27   49 1
    45   28   50 1
    46   28   51 1
    47   28   52 1
    48   29   34 ar
    49   29   30 ar
    50   30   31 ar
    51   30   53 1
    52   31   32 ar
    53   31   54 1
    54   32   33 ar
    55   32   35 1
    56   33   34 ar
    57   33   55 1
    58   34   56 1
    59   35   36 1
    60   35   37 1
    61   35   38 1
    62   36   57 1
    63   36   58 1
    64   36   59 1
    65   37   60 1
    66   37   61 1
    67   37   62 1
    68   38   63 1
    69   38   64 1
    70   38   65 1
    71   39   66 1
    72   39   67 1
    73   39   68 1
@<TRIPOS>MOLECULE
ZINC59198750
   68    73     0     0     0
SMALL
USER_CHARGES

@<TRIPOS>ATOM
      1 C1          1.6571   -0.7998   -1.1437 C.3       1 <0>        -0.1445
      2 C2          1.2892   -1.9692   -0.2284 C.3       1 <0>        -0.0614
      3 C3          1.8746   -1.7301    1.1648 C.3       1 <0>        -0.1444
      4 C4         -0.2107   -2.0785   -0.1311 C.ar      1 <0>        -0.0513
      5 C5         -0.9478   -1.0150    0.3606 C.ar      1 <0>        -0.1271
      6 C6         -2.3203   -1.1068    0.4529 C.ar      1 <0>        -0.0824
      7 C7         -2.9680   -2.2790    0.0473 C.ar      1 <0>        -0.0969
      8 C8         -2.2155   -3.3493   -0.4491 C.ar      1 <0>        -0.0389
      9 C9         -0.8442   -3.2395   -0.5394 C.ar      1 <0>        -0.1247
     10 C10        -4.4310   -2.3858    0.1426 C.2       1 <0>         0.0667
     11 C11        -5.1380   -2.9411   -0.8729 C.2       1 <0>        -0.2164
     12 C12        -4.6830   -3.3620   -2.2077 C.2       1 <0>         0.5487
     13 O1         -3.5198   -3.2356   -2.5422 O.2       1 <0>        -0.4650
     14 N1         -5.5876   -3.8888   -3.0428 N.am      1 <0>        -0.5710
     15 C13        -6.8923   -4.0181   -2.6066 C.2       1 <0>         0.3861
     16 N2         -7.8497   -4.5231   -3.3239 N.2       1 <0>        -0.4824
     17 C14        -7.6974   -4.9899   -4.5906 C.2       1 <0>         0.1495
     18 C15        -6.4999   -4.9269   -5.1992 C.2       1 <0>        -0.1564
     19 C16        -5.3290   -4.3629   -4.4313 C.3       1 <0>         0.2451
     20 H1         -4.5578   -5.1317   -4.3843 H         1 <0>         0.0959
     21 C17        -4.7732   -3.2051   -5.2197 C.ar      1 <0>        -0.0922
     22 C18        -3.6570   -3.3828   -6.0140 C.ar      1 <0>        -0.0896
     23 C19        -3.1458   -2.3174   -6.7399 C.ar      1 <0>         0.0971
     24 C20        -3.7553   -1.0734   -6.6684 C.ar      1 <0>        -0.1604
     25 C21        -4.8712   -0.8957   -5.8743 C.ar      1 <0>        -0.1666
     26 C22        -5.3856   -1.9627   -5.1523 C.ar      1 <0>         0.1116
     27 O2         -6.4877   -1.7892   -4.3748 O.3       1 <0>        -0.3101
     28 C23        -7.0670   -0.4830   -4.3527 C.3       1 <0>         0.0285
     29 O3         -2.0468   -2.4922   -7.5214 O.3       1 <0>        -0.3155
     30 C24        -1.5746   -1.3517   -8.2414 C.3       1 <0>         0.0277
     31 C25        -6.3286   -5.3780   -6.6220 C.3       1 <0>        -0.0590
     32 C26        -7.2053   -6.5928   -6.9161 C.3       1 <0>        -0.0789
     33 C27        -8.6190   -6.3330   -6.4663 C.ar      1 <0>        -0.0676
     34 C28        -8.8503   -5.5636   -5.3280 C.ar      1 <0>        -0.0351
     35 C29       -10.1528   -5.3372   -4.8943 C.ar      1 <0>        -0.0796
     36 C30       -11.2121   -5.8689   -5.6036 C.ar      1 <0>        -0.1280
     37 C31       -10.9785   -6.6218   -6.7400 C.ar      1 <0>        -0.1089
     38 C32        -9.6839   -6.8541   -7.1709 C.ar      1 <0>        -0.1199
     39 S1         -6.8709   -3.3663   -0.9484 S.3       1 <0>         0.0868
     40 H2          2.7419   -0.7208   -1.2141 H         1 <0>         0.0593
     41 H3          1.2401   -0.9701   -2.1363 H         1 <0>         0.0560
     42 H4          1.2514    0.1248   -0.7329 H         1 <0>         0.0569
     43 H5          1.6949   -2.8937   -0.6392 H         1 <0>         0.0784
     44 H6          1.4688   -0.8056    1.5757 H         1 <0>         0.0574
     45 H7          1.6125   -2.5633    1.8170 H         1 <0>         0.0567
     46 H8          2.9594   -1.6511    1.0945 H         1 <0>         0.0592
     47 H9         -0.4463   -0.1110    0.6733 H         1 <0>         0.1243
     48 H10        -2.8939   -0.2765    0.8375 H         1 <0>         0.1263
     49 H11        -2.7079   -4.2575   -0.7639 H         1 <0>         0.1188
     50 H12        -0.2623   -4.0631   -0.9261 H         1 <0>         0.1224
     51 H13        -4.9428   -2.0219    1.0213 H         1 <0>         0.1558
     52 H14        -3.1822   -4.3512   -6.0694 H         1 <0>         0.1377
     53 H15        -3.3569   -0.2436   -7.2334 H         1 <0>         0.1319
     54 H16        -5.3453    0.0730   -5.8180 H         1 <0>         0.1315
     55 H17        -7.9367   -0.4824   -3.6958 H         1 <0>         0.1007
     56 H18        -6.3330    0.2338   -3.9846 H         1 <0>         0.0530
     57 H19        -7.3731   -0.2042   -5.3610 H         1 <0>         0.0545
     58 H20        -0.6954   -1.6279   -8.8235 H         1 <0>         0.1016
     59 H21        -2.3570   -0.9956   -8.9116 H         1 <0>         0.0546
     60 H22        -1.3113   -0.5616   -7.5382 H         1 <0>         0.0542
     61 H23        -6.6068   -4.5645   -7.2920 H         1 <0>         0.0819
     62 H24        -5.2843   -5.6401   -6.7917 H         1 <0>         0.0823
     63 H25        -7.1980   -6.7927   -7.9876 H         1 <0>         0.0866
     64 H26        -6.8110   -7.4598   -6.3861 H         1 <0>         0.0816
     65 H27       -10.3347   -4.7488   -4.0071 H         1 <0>         0.1322
     66 H28       -12.2248   -5.6967   -5.2700 H         1 <0>         0.1248
     67 H29       -11.8105   -7.0308   -7.2939 H         1 <0>         0.1237
     68 H30        -9.5077   -7.4430   -8.0589 H         1 <0>         0.1262
@<TRIPOS>BOND
     1    1    2 1
     2    1   40 1
     3    1   41 1
     4    1   42 1
     5    2    3 1
     6    2    4 1
     7    2   43 1
     8    3   44 1
     9    3   45 1
    10    3   46 1
    11    4    9 ar
    12    4    5 ar
    13    5    6 ar
    14    5   47 1
    15    6    7 ar
    16    6   48 1
    17    7    8 ar
    18    7   10 1
    19    8    9 ar
    20    8   49 1
    21    9   50 1
    22   10   11 2
    23   10   51 1
    24   11   39 1
    25   11   12 1
    26   12   13 2
    27   12   14 am
    28   14   19 1
    29   14   15 1
    30   15   16 2
    31   15   39 1
    32   16   17 1
    33   17   34 1
    34   17   18 2
    35   18   19 1
    36   18   31 1
    37   19   20 1
    38   19   21 1
    39   21   26 ar
    40   21   22 ar
    41   22   23 ar
    42   22   52 1
    43   23   24 ar
    44   23   29 1
    45   24   25 ar
    46   24   53 1
    47   25   26 ar
    48   25   54 1
    49   26   27 1
    50   27   28 1
    51   28   55 1
    52   28   56 1
    53   28   57 1
    54   29   30 1
    55   30   58 1
    56   30   59 1
    57   30   60 1
    58   31   32 1
    59   31   61 1
    60   31   62 1
    61   32   33 1
    62   32   63 1
    63   32   64 1
    64   33   38 ar
    65   33   34 ar
    66   34   35 ar
    67   35   36 ar
    68   35   65 1
    69   36   37 ar
    70   36   66 1
    71   37   38 ar
    72   37   67 1
    73   38   68 1
@<TRIPOS>MOLECULE
ZINC09339725
   58    61     0     0     0
SMALL
USER_CHARGES
allyl 2-(3,4-dimethoxyphenyl)-8-[(4-fluorophenyl)methylene]-4-methyl-9-oxo-7-thia-1,5-diazabicyclo[4.3.0]nona-3,5-diene-3-carboxylate
@<TRIPOS>ATOM
      1 C1         -7.9185    5.4414    0.6709 C.3       1 <0>        -0.1016
      2 C2         -7.2663    4.0999    0.8855 C.2       1 <0>         0.2444
      3 C3         -8.0309    2.9672    0.8861 C.2       1 <0>        -0.2771
      4 C4         -7.3386    1.6417    1.1052 C.3       1 <0>         0.2464
      5 H1         -7.7865    1.1701    1.9799 H         1 <0>         0.1010
      6 N1         -5.8625    1.6706    1.3057 N.am      1 <0>        -0.5759
      7 C5         -5.0752    0.6059    1.5074 C.2       1 <0>         0.5532
      8 O1         -5.5385   -0.5189    1.5423 O.2       1 <0>        -0.4547
      9 C6         -3.6348    0.8380    1.6901 C.2       1 <0>        -0.2316
     10 C7         -2.6379   -0.0566    1.9105 C.2       1 <0>         0.0837
     11 C8         -1.2827    0.4161    2.2233 C.ar      1 <0>        -0.1085
     12 C9         -0.2153   -0.4887    2.2686 C.ar      1 <0>        -0.0445
     13 C10         1.0541   -0.0375    2.5570 C.ar      1 <0>        -0.1543
     14 C11         1.2748    1.3086    2.8079 C.ar      1 <0>         0.1305
     15 C12         0.2211    2.2097    2.7700 C.ar      1 <0>        -0.1483
     16 C13        -1.0534    1.7725    2.4829 C.ar      1 <0>        -0.0564
     17 F1          2.5221    1.7442    3.0901 F         1 <0>        -0.1285
     18 S1         -3.5513    2.6153    1.5355 S.3       1 <0>         0.1283
     19 C14        -5.2868    2.9197    1.2682 C.2       1 <0>         0.3845
     20 N2         -5.9544    4.0287    1.0727 N.2       1 <0>        -0.5124
     21 C15        -7.6266    0.7657   -0.0867 C.ar      1 <0>        -0.1029
     22 C16        -8.4498   -0.3366    0.0503 C.ar      1 <0>        -0.0588
     23 C17        -8.7171   -1.1433   -1.0401 C.ar      1 <0>        -0.1736
     24 C18        -8.1599   -0.8476   -2.2738 C.ar      1 <0>         0.1122
     25 C19        -7.3318    0.2622   -2.4118 C.ar      1 <0>         0.0968
     26 C20        -7.0718    1.0693   -1.3159 C.ar      1 <0>        -0.1526
     27 O2         -6.7826    0.5565   -3.6206 O.3       1 <0>        -0.3043
     28 C21        -5.8640    1.6502   -3.6668 C.3       1 <0>         0.0276
     29 O3         -8.4222   -1.6399   -3.3475 O.3       1 <0>        -0.3054
     30 C22        -9.2812   -2.7613   -3.1319 C.3       1 <0>         0.0256
     31 C23        -9.4200    3.0329    0.6883 C.2       1 <0>         0.5309
     32 O4         -9.9509    4.1022    0.4467 O.2       1 <0>        -0.5073
     33 O5        -10.1671    1.9102    0.7661 O.3       1 <0>        -0.3424
     34 C24       -11.5842    2.0659    0.6679 C.3       1 <0>         0.0960
     35 C25       -12.2528    0.7346    0.8954 C.2       1 <0>        -0.1581
     36 C26       -13.2644    0.6426    1.7226 C.2       1 <0>        -0.1674
     37 H2         -7.1599    6.2235    0.7025 H         1 <0>         0.0770
     38 H3         -8.4128    5.4539   -0.3005 H         1 <0>         0.0987
     39 H4         -8.6545    5.6172    1.4554 H         1 <0>         0.0960
     40 H5         -2.8411   -1.1159    1.8558 H         1 <0>         0.1687
     41 H6         -0.3857   -1.5371    2.0735 H         1 <0>         0.1480
     42 H7          1.8793   -0.7335    2.5875 H         1 <0>         0.1476
     43 H8          0.4002    3.2565    2.9663 H         1 <0>         0.1484
     44 H9         -1.8729    2.4753    2.4533 H         1 <0>         0.1349
     45 H10        -8.8847   -0.5681    1.0114 H         1 <0>         0.1293
     46 H11        -9.3605   -2.0037   -0.9304 H         1 <0>         0.1380
     47 H12        -6.4324    1.9333   -1.4212 H         1 <0>         0.1229
     48 H13        -6.3525    2.5509   -3.2950 H         1 <0>         0.0521
     49 H14        -4.9978    1.4237   -3.0452 H         1 <0>         0.0513
     50 H15        -5.5411    1.8103   -4.6955 H         1 <0>         0.1036
     51 H16        -9.4073   -3.3075   -4.0667 H         1 <0>         0.1016
     52 H17        -8.8390   -3.4191   -2.3836 H         1 <0>         0.0558
     53 H18       -10.2525   -2.4129   -2.7808 H         1 <0>         0.0556
     54 H19       -11.9246    2.7768    1.4207 H         1 <0>         0.0721
     55 H20       -11.8411    2.4366   -0.3244 H         1 <0>         0.0765
     56 H21       -11.8979   -0.1436    0.3764 H         1 <0>         0.1191
     57 H22       -13.7435   -0.3115    1.8857 H         1 <0>         0.1083
     58 H23       -13.6192    1.5207    2.2416 H         1 <0>         0.1001
@<TRIPOS>BOND
     1    1    2 1
     2    1   37 1
     3    1   38 1
     4    1   39 1
     5    2   20 1
     6    2    3 2
     7    3    4 1
     8    3   31 1
     9    4    5 1
    10    4    6 1
    11    4   21 1
    12    6   19 1
    13    6    7 am
    14    7    8 2
    15    7    9 1
    16    9   10 2
    17    9   18 1
    18   10   11 1
    19   10   40 1
    20   11   16 ar
    21   11   12 ar
    22   12   13 ar
    23   12   41 1
    24   13   14 ar
    25   13   42 1
    26   14   15 ar
    27   14   17 1
    28   15   16 ar
    29   15   43 1
    30   16   44 1
    31   18   19 1
    32   19   20 2
    33   21   26 ar
    34   21   22 ar
    35   22   23 ar
    36   22   45 1
    37   23   24 ar
    38   23   46 1
    39   24   25 ar
    40   24   29 1
    41   25   26 ar
    42   25   27 1
    43   26   47 1
    44   27   28 1
    45   28   48 1
    46   28   49 1
    47   28   50 1
    48   29   30 1
    49   30   51 1
    50   30   52 1
    51   30   53 1
    52   31   32 2
    53   31   33 1
    54   33   34 1
    55   34   35 1
    56   34   54 1
    57   34   55 1
    58   35   36 2
    59   35   56 1
    60   36   57 1
    61   36   58 1
@<TRIPOS>MOLECULE
ZINC13770533
   63    66     0     0     0
SMALL
USER_CHARGES
ethyl 4-(ethyl-methyl-propylsulfanyl-BLAHyl)piperazine-1-carboxylate
@<TRIPOS>ATOM
      1 C1         -2.2957   -7.9053    7.6234 C.3       1 <0>        -0.1463
      2 C2         -2.7095   -6.6401    6.8691 C.3       1 <0>        -0.1124
      3 C3         -1.6991   -6.3567    5.7557 C.3       1 <0>        -0.1121
      4 S1         -2.1887   -4.8600    4.8634 S.3       1 <0>         0.0223
      5 C4         -0.8901   -4.7734    3.6756 C.ar      1 <0>         0.3283
      6 N1         -0.8756   -3.7773    2.7973 N.ar      1 <0>        -0.5365
      7 C5          0.0696   -3.6628    1.8802 C.ar      1 <0>         0.4148
      8 C6          1.1143   -4.6284    1.8326 C.ar      1 <0>        -0.1674
      9 C7          2.2548   -4.7006    0.9210 C.2       1 <0>        -0.0537
     10 C8          3.1122   -5.7298    1.0892 C.2       1 <0>        -0.1971
     11 S2          2.4633   -6.6529    2.4532 S.3       1 <0>         0.1414
     12 C9          1.0374   -5.6539    2.7970 C.ar      1 <0>         0.1334
     13 N2          0.0571   -5.7017    3.6781 N.ar      1 <0>        -0.4876
     14 C10         4.3399   -6.0019    0.2760 C.3       1 <0>         0.1439
     15 O1          4.2821   -5.1798   -0.9004 O.3       1 <0>        -0.3548
     16 C11         3.9711   -3.8113   -0.6249 C.3       1 <0>         0.1106
     17 C12         2.5094   -3.6812   -0.1869 C.3       1 <0>        -0.0703
     18 C13         4.8829   -3.2988    0.4918 C.3       1 <0>        -0.1834
     19 C14         4.1991   -2.9755   -1.8860 C.3       1 <0>        -0.1070
     20 C15         5.6628   -3.0906   -2.3164 C.3       1 <0>        -0.1529
     21 N3          0.0468   -2.6129    0.9804 N.pl3     1 <0>        -0.4821
     22 C16        -1.1301   -2.6951    0.1052 C.3       1 <0>         0.0447
     23 C17        -1.0253   -1.6263   -0.9879 C.3       1 <0>         0.1364
     24 N4         -0.8182   -0.3196   -0.3454 N.am      1 <0>        -0.5980
     25 C18         0.2627   -0.1942    0.6442 C.3       1 <0>         0.1208
     26 C19         0.1034   -1.3210    1.6773 C.3       1 <0>         0.0429
     27 C20        -1.5948    0.7364   -0.6591 C.2       1 <0>         0.6534
     28 O2         -2.4768    0.6174   -1.4863 O.2       1 <0>        -0.5690
     29 O3         -1.3896    1.9245   -0.0599 O.3       1 <0>        -0.3697
     30 C21        -2.2637    3.0175   -0.4467 C.3       1 <0>         0.0821
     31 C22        -1.8815    4.2768    0.3337 C.3       1 <0>        -0.1537
     32 H1         -2.2703   -8.7482    6.9327 H         1 <0>         0.0586
     33 H2         -1.3066   -7.7620    8.0583 H         1 <0>         0.0585
     34 H3         -3.0155   -8.1073    8.4166 H         1 <0>         0.0634
     35 H4         -2.7350   -5.7973    7.5599 H         1 <0>         0.0735
     36 H5         -3.6987   -6.7835    6.4343 H         1 <0>         0.0737
     37 H6         -1.6737   -7.1996    5.0650 H         1 <0>         0.0972
     38 H7         -0.7100   -6.2134    6.1906 H         1 <0>         0.0971
     39 H8          5.2288   -5.7536    0.8559 H         1 <0>         0.0818
     40 H9          4.3677   -7.0535   -0.0092 H         1 <0>         0.1147
     41 H10         1.8521   -3.8844   -1.0324 H         1 <0>         0.0882
     42 H11         2.3259   -2.6748    0.1895 H         1 <0>         0.1009
     43 H12         5.9233   -3.3797    0.1772 H         1 <0>         0.0709
     44 H13         4.6473   -2.2558    0.7032 H         1 <0>         0.0690
     45 H14         4.7275   -3.8957    1.3904 H         1 <0>         0.0605
     46 H15         3.5553   -3.3415   -2.6858 H         1 <0>         0.0718
     47 H16         3.9625   -1.9320   -1.6779 H         1 <0>         0.0774
     48 H17         5.8993   -4.1341   -2.5245 H         1 <0>         0.0631
     49 H18         5.8252   -2.4951   -3.2149 H         1 <0>         0.0544
     50 H19         6.3066   -2.7246   -1.5167 H         1 <0>         0.0556
     51 H20        -2.0327   -2.5273    0.6927 H         1 <0>         0.0628
     52 H21        -1.1737   -3.6825   -0.3545 H         1 <0>         0.0933
     53 H22        -1.9467   -1.6062   -1.5699 H         1 <0>         0.1071
     54 H23        -0.1816   -1.8513   -1.6404 H         1 <0>         0.0852
     55 H24         1.2278   -0.2842    0.1456 H         1 <0>         0.0829
     56 H25         0.1932    0.7731    1.1417 H         1 <0>         0.1032
     57 H26        -0.8164   -1.1722    2.2429 H         1 <0>         0.0639
     58 H27         0.9548   -1.3117    2.3578 H         1 <0>         0.0905
     59 H28        -2.1585    3.2062   -1.5150 H         1 <0>         0.0716
     60 H29        -3.2973    2.7521   -0.2246 H         1 <0>         0.0709
     61 H30        -2.5377    5.0973    0.0434 H         1 <0>         0.0837
     62 H31        -1.9867    4.0880    1.4021 H         1 <0>         0.0668
     63 H32        -0.8479    4.5421    0.1117 H         1 <0>         0.0672
@<TRIPOS>BOND
     1    1    2 1
     2    1   32 1
     3    1   33 1
     4    1   34 1
     5    2    3 1
     6    2   35 1
     7    2   36 1
     8    3    4 1
     9    3   37 1
    10    3   38 1
    11    4    5 1
    12    5   13 ar
    13    5    6 ar
    14    6    7 ar
    15    7    8 ar
    16    7   21 1
    17    8   12 ar
    18    8    9 1
    19    9   17 1
    20    9   10 2
    21   10   11 1
    22   10   14 1
    23   11   12 1
    24   12   13 ar
    25   14   15 1
    26   14   39 1
    27   14   40 1
    28   15   16 1
    29   16   17 1
    30   16   18 1
    31   16   19 1
    32   17   41 1
    33   17   42 1
    34   18   43 1
    35   18   44 1
    36   18   45 1
    37   19   20 1
    38   19   46 1
    39   19   47 1
    40   20   48 1
    41   20   49 1
    42   20   50 1
    43   21   26 1
    44   21   22 1
    45   22   23 1
    46   22   51 1
    47   22   52 1
    48   23   24 1
    49   23   53 1
    50   23   54 1
    51   24   25 1
    52   24   27 am
    53   25   26 1
    54   25   55 1
    55   25   56 1
    56   26   57 1
    57   26   58 1
    58   27   28 2
    59   27   29 1
    60   29   30 1
    61   30   31 1
    62   30   59 1
    63   30   60 1
    64   31   61 1
    65   31   62 1
    66   31   63 1
@<TRIPOS>MOLECULE
ZINC19833595
   54    57     0     0     0
SMALL
USER_CHARGES
methyl (2E,5R)-2-[(2-chlorophenyl)methylene]-5-(3,4-dimethoxyphenyl)-7-methyl-3-oxo-5H-thiazolo[3,2-a]pyrimidine-6-carboxylate
@<TRIPOS>ATOM
      1 C1         -5.1243    0.1814    2.1377 C.3       1 <0>        -0.1847
      2 C2         -4.3136    0.9854    3.1213 C.2       1 <0>         0.2620
      3 C3         -2.9643    1.1113    2.9443 C.2       1 <0>        -0.2931
      4 C4         -2.1885    1.9311    3.9494 C.3       1 <0>         0.2512
      5 H1         -1.5137    1.2186    4.4464 H         1 <0>         0.0975
      6 N1         -2.9591    2.5405    5.0697 N.am      1 <0>        -0.5811
      7 C5         -2.4527    3.2953    6.0534 C.2       1 <0>         0.5460
      8 O1         -1.2634    3.5488    6.1006 O.2       1 <0>        -0.4449
      9 C6         -3.3782    3.8088    7.0747 C.2       1 <0>        -0.2314
     10 C7         -3.1226    4.5849    8.1585 C.2       1 <0>         0.0836
     11 C8         -1.7934    5.1856    8.3347 C.ar      1 <0>        -0.0910
     12 C9         -1.1004    5.6975    7.2315 C.ar      1 <0>        -0.0297
     13 C10         0.1435    6.2646    7.4063 C.ar      1 <0>        -0.1214
     14 C11         0.7139    6.3185    8.6669 C.ar      1 <0>        -0.0783
     15 C12         0.0391    5.8105    9.7627 C.ar      1 <0>        -0.1215
     16 C13        -1.2101    5.2442    9.6067 C.ar      1 <0>        -0.0026
     17 Cl1        -2.0554    4.6072   10.9827 Cl        1 <0>        -0.0579
     18 S1         -4.9297    3.1352    6.5016 S.3       1 <0>         0.1315
     19 C14        -4.3110    2.2844    5.0631 C.2       1 <0>         0.4057
     20 N2         -4.9155    1.5622    4.1539 N.2       1 <0>        -0.5146
     21 C15        -1.4966    3.0437    3.2048 C.ar      1 <0>        -0.0896
     22 C16        -2.2025    4.1771    2.8464 C.ar      1 <0>        -0.0998
     23 C17        -1.5723    5.2004    2.1632 C.ar      1 <0>        -0.1732
     24 C18        -0.2301    5.0917    1.8366 C.ar      1 <0>         0.1099
     25 C19         0.4805    3.9511    2.1977 C.ar      1 <0>         0.1005
     26 C20        -0.1560    2.9312    2.8866 C.ar      1 <0>        -0.1149
     27 O2          1.7980    3.8398    1.8793 O.3       1 <0>        -0.3040
     28 C21         2.4636    2.6410    2.2819 C.3       1 <0>         0.0223
     29 O3          0.3914    6.0977    1.1649 O.3       1 <0>        -0.3042
     30 C22        -0.4003    7.2384    0.8273 C.3       1 <0>         0.0223
     31 C23        -2.3181    0.5012    1.8566 C.2       1 <0>         0.5382
     32 O4         -2.9397   -0.2407    1.1170 O.2       1 <0>        -0.5002
     33 O5         -1.0075    0.7372    1.6307 O.3       1 <0>        -0.3441
     34 C24        -0.4149    0.0835    0.5066 C.3       1 <0>         0.0293
     35 H2         -4.4615   -0.2174    1.3556 H         1 <0>         0.1618
     36 H3         -5.8875    0.8264    1.6778 H         1 <0>         0.0826
     37 H4         -5.6156   -0.6516    2.6618 H         1 <0>         0.0869
     38 H5         -3.9106    4.7641    8.9048 H         1 <0>         0.1672
     39 H6         -1.5411    5.6520    6.2466 H         1 <0>         0.1310
     40 H7          0.6772    6.6639    6.5565 H         1 <0>         0.1328
     41 H8          1.6911    6.7600    8.7956 H         1 <0>         0.1365
     42 H9          0.4910    5.8568   10.7425 H         1 <0>         0.1396
     43 H10        -3.2487    4.2631    3.1004 H         1 <0>         0.1123
     44 H11        -2.1260    6.0848    1.8845 H         1 <0>         0.1362
     45 H12         0.3942    2.0465    3.1713 H         1 <0>         0.1386
     46 H13         3.5158    2.6814    1.9639 H         1 <0>         0.1025
     47 H14         1.9724    1.7745    1.8151 H         1 <0>         0.0561
     48 H15         2.4148    2.5445    3.3766 H         1 <0>         0.0557
     49 H16         0.2213    7.9703    0.2906 H         1 <0>         0.1037
     50 H17        -0.7945    7.6962    1.7466 H         1 <0>         0.0554
     51 H18        -1.2371    6.9268    0.1848 H         1 <0>         0.0558
     52 H19         0.6474    0.3609    0.4392 H         1 <0>         0.1000
     53 H20        -0.9337    0.3927   -0.4128 H         1 <0>         0.0634
     54 H21        -0.5023   -1.0063    0.6281 H         1 <0>         0.0638
@<TRIPOS>BOND
     1    1    2 1
     2    1   35 1
     3    1   36 1
     4    1   37 1
     5    2   20 1
     6    2    3 2
     7    3    4 1
     8    3   31 1
     9    4    5 1
    10    4    6 1
    11    4   21 1
    12    6   19 1
    13    6    7 am
    14    7    8 2
    15    7    9 1
    16    9   10 2
    17    9   18 1
    18   10   11 1
    19   10   38 1
    20   11   16 ar
    21   11   12 ar
    22   12   13 ar
    23   12   39 1
    24   13   14 ar
    25   13   40 1
    26   14   15 ar
    27   14   41 1
    28   15   16 ar
    29   15   42 1
    30   16   17 1
    31   18   19 1
    32   19   20 2
    33   21   26 ar
    34   21   22 ar
    35   22   23 ar
    36   22   43 1
    37   23   24 ar
    38   23   44 1
    39   24   25 ar
    40   24   29 1
    41   25   26 ar
    42   25   27 1
    43   26   45 1
    44   27   28 1
    45   28   46 1
    46   28   47 1
    47   28   48 1
    48   29   30 1
    49   30   49 1
    50   30   50 1
    51   30   51 1
    52   31   32 2
    53   31   33 1
    54   33   34 1
    55   34   52 1
    56   34   53 1
    57   34   54 1
@<TRIPOS>MOLECULE
ZINC34695152
   58    62     0     0     0
SMALL
USER_CHARGES

@<TRIPOS>ATOM
      1 C1         -0.0167    1.3784    0.0096 C.ar      1 <0>        -0.1549
      2 C2          1.1698    2.0883    0.0021 C.ar      1 <0>        -0.0797
      3 C3          2.3773    1.4175   -0.0134 C.ar      1 <0>        -0.1484
      4 C4          2.3989    0.0304   -0.0210 C.ar      1 <0>         0.1286
      5 C5          1.2070   -0.6796   -0.0130 C.ar      1 <0>        -0.2071
      6 C6          0.0021   -0.0041    0.0020 C.ar      1 <0>        -0.0798
      7 O1          3.5855   -0.6319   -0.0368 O.3       1 <0>        -0.3085
      8 C7          3.5315   -2.0598   -0.0438 C.3       1 <0>         0.0502
      9 C8          4.9536   -2.6239   -0.0615 C.3       1 <0>         0.1073
     10 N1          4.8982   -4.0879   -0.0687 N.pl3     1 <0>        -0.4093
     11 C9          4.9674   -4.8979    1.0058 C.2       1 <0>         0.2731
     12 N2          4.8845   -6.1466    0.6232 N.2       1 <0>        -0.4864
     13 C10         4.7588   -6.2054   -0.7050 C.2       1 <0>         0.3249
     14 C11         4.7591   -4.8989   -1.1770 C.2       1 <0>        -0.1483
     15 C12         4.6329   -4.6686   -2.5640 C.2       1 <0>         0.5939
     16 O2          4.6335   -3.5322   -3.0024 O.2       1 <0>        -0.5069
     17 N3          4.5121   -5.7219   -3.3986 N.am      1 <0>        -0.5435
     18 C13         4.5099   -6.9811   -2.9285 C.2       1 <0>         0.7141
     19 O3          4.3987   -7.9055   -3.7106 O.2       1 <0>        -0.5093
     20 N4          4.6348   -7.2450   -1.6141 N.am      1 <0>        -0.4668
     21 C14         4.6270   -8.5713   -1.1631 C.ar      1 <0>         0.1415
     22 C15         3.4270   -9.1869   -0.8330 C.ar      1 <0>        -0.0804
     23 C16         3.4223  -10.4948   -0.3891 C.ar      1 <0>        -0.1057
     24 C17         4.6112  -11.1917   -0.2726 C.ar      1 <0>        -0.0890
     25 C18         5.8082  -10.5825   -0.6002 C.ar      1 <0>        -0.1045
     26 C19         5.8195   -9.2756   -1.0506 C.ar      1 <0>        -0.0117
     27 Cl1         7.3220   -8.5130   -1.4682 Cl        1 <0>        -0.0545
     28 C20         4.3808   -5.4895   -4.8391 C.3       1 <0>         0.1478
     29 C21         3.0549   -6.0734   -5.3311 C.3       1 <0>        -0.1358
     30 C22         2.9178   -5.8307   -6.8355 C.3       1 <0>        -0.1125
     31 C23         4.0770   -6.5082   -7.5692 C.3       1 <0>        -0.1225
     32 C24         5.4028   -5.9243   -7.0771 C.3       1 <0>        -0.1126
     33 C25         5.5400   -6.1670   -5.5727 C.3       1 <0>        -0.1361
     34 H1         -0.9596    1.9047    0.0260 H         1 <0>         0.1257
     35 H2          1.1525    3.1682    0.0080 H         1 <0>         0.1317
     36 H3          3.3038    1.9724   -0.0200 H         1 <0>         0.1324
     37 H4          1.2211   -1.7595   -0.0193 H         1 <0>         0.1244
     38 H5         -0.9260   -0.5563    0.0082 H         1 <0>         0.1257
     39 H6          3.0134   -2.4083    0.8497 H         1 <0>         0.0709
     40 H7          2.9951   -2.3988   -0.9302 H         1 <0>         0.0729
     41 H8          5.4716   -2.2755   -0.9550 H         1 <0>         0.1180
     42 H9          5.4899   -2.2850    0.8248 H         1 <0>         0.1188
     43 H10         5.0756   -4.5668    2.0281 H         1 <0>         0.2333
     44 H11         2.4980   -8.6434   -0.9229 H         1 <0>         0.1339
     45 H12         2.4890  -10.9738   -0.1323 H         1 <0>         0.1394
     46 H13         4.6045  -12.2141    0.0755 H         1 <0>         0.1407
     47 H14         6.7350  -11.1293   -0.5078 H         1 <0>         0.1427
     48 H15         4.4019   -4.4179   -5.0377 H         1 <0>         0.1158
     49 H16         3.0339   -7.1449   -5.1325 H         1 <0>         0.0907
     50 H17         2.2291   -5.5907   -4.8085 H         1 <0>         0.0623
     51 H18         1.9733   -6.2467   -7.1860 H         1 <0>         0.0694
     52 H19         2.9389   -4.7591   -7.0341 H         1 <0>         0.0641
     53 H20         4.0559   -7.5798   -7.3706 H         1 <0>         0.0669
     54 H21         3.9793   -6.3353   -8.6409 H         1 <0>         0.0656
     55 H22         6.2286   -6.4070   -7.5998 H         1 <0>         0.0695
     56 H23         5.4239   -4.8528   -7.2757 H         1 <0>         0.0641
     57 H24         6.4845   -5.7510   -5.2222 H         1 <0>         0.0629
     58 H25         5.5189   -7.2386   -5.3742 H         1 <0>         0.0909
@<TRIPOS>BOND
     1    1    6 ar
     2    1    2 ar
     3    1   34 1
     4    2    3 ar
     5    2   35 1
     6    3    4 ar
     7    3   36 1
     8    4    5 ar
     9    4    7 1
    10    5    6 ar
    11    5   37 1
    12    6   38 1
    13    7    8 1
    14    8    9 1
    15    8   39 1
    16    8   40 1
    17    9   10 1
    18    9   41 1
    19    9   42 1
    20   10   14 1
    21   10   11 1
    22   11   12 2
    23   11   43 1
    24   12   13 1
    25   13   20 1
    26   13   14 2
    27   14   15 1
    28   15   16 2
    29   15   17 am
    30   17   18 am
    31   17   28 1
    32   18   19 2
    33   18   20 am
    34   20   21 1
    35   21   26 ar
    36   21   22 ar
    37   22   23 ar
    38   22   44 1
    39   23   24 ar
    40   23   45 1
    41   24   25 ar
    42   24   46 1
    43   25   26 ar
    44   25   47 1
    45   26   27 1
    46   28   33 1
    47   28   29 1
    48   28   48 1
    49   29   30 1
    50   29   49 1
    51   29   50 1
    52   30   31 1
    53   30   51 1
    54   30   52 1
    55   31   32 1
    56   31   53 1
    57   31   54 1
    58   32   33 1
    59   32   55 1
    60   32   56 1
    61   33   57 1
    62   33   58 1
@<TRIPOS>MOLECULE
ZINC40065390
   60    64     0     0     0
SMALL
USER_CHARGES

@<TRIPOS>ATOM
      1 C1         -0.0184    1.5028    0.0103 C.3       1 <0>        -0.1252
      2 C2          0.0021   -0.0041    0.0020 C.ar      1 <0>        -0.0218
      3 C3          0.0056   -0.6827   -1.2086 C.ar      1 <0>        -0.1356
      4 C4          0.0206   -2.0496   -1.2314 C.ar      1 <0>        -0.0318
      5 C5          0.0328   -2.7610   -0.0319 C.ar      1 <0>        -0.2113
      6 C6          0.0360   -4.2459   -0.0383 C.2       1 <0>         0.4569
      7 O1          0.2000   -4.9084   -1.0475 O.2       1 <0>        -0.4183
      8 C7         -0.1764   -4.8388    1.2858 C.2       1 <0>        -0.2275
      9 C8         -0.1583   -4.0683    2.4142 C.2       1 <0>         0.0939
     10 O2          0.0599   -2.7387    2.3829 O.3       1 <0>        -0.1742
     11 C9          0.0359   -2.0851    1.1991 C.ar      1 <0>         0.1428
     12 C10         0.0227   -0.6902    1.1954 C.ar      1 <0>        -0.0997
     13 C11         0.0249    0.0662    2.4988 C.3       1 <0>        -0.1168
     14 C12        -0.4075   -4.9408    3.5738 C.2       1 <0>         0.5761
     15 O3         -0.4594   -4.5658    4.7285 O.2       1 <0>        -0.4450
     16 N1         -0.5704   -6.2166    3.1679 N.am      1 <0>        -0.4897
     17 C13        -0.4361   -6.2494    1.7023 C.3       1 <0>         0.2358
     18 H1         -1.3584   -6.6118    1.2482 H         1 <0>         0.1387
     19 C14         0.7208   -7.1300    1.3058 C.ar      1 <0>        -0.0565
     20 C15         1.8633   -7.1618    2.0841 C.ar      1 <0>        -0.1381
     21 C16         2.9263   -7.9686    1.7231 C.ar      1 <0>        -0.0749
     22 C17         2.8496   -8.7450    0.5828 C.ar      1 <0>        -0.1951
     23 C18         1.7047   -8.7149   -0.1997 C.ar      1 <0>         0.1379
     24 C19         0.6368   -7.9089    0.1682 C.ar      1 <0>        -0.1046
     25 O4          1.6268   -9.4777   -1.3217 O.3       1 <0>        -0.3068
     26 C20         2.7616  -10.2874   -1.6357 C.3       1 <0>         0.0868
     27 C21         2.4943  -11.0569   -2.9036 C.2       1 <0>        -0.1586
     28 C22         3.4142  -11.1270   -3.8336 C.2       1 <0>        -0.1680
     29 C23        -0.8205   -7.3083    3.9890 C.2       1 <0>         0.2945
     30 N2         -0.9868   -8.5875    3.6807 N.2       1 <0>        -0.2860
     31 N3         -1.2090   -9.4608    4.5631 N.2       1 <0>        -0.2499
     32 C24        -1.2901   -9.1597    5.8442 C.2       1 <0>         0.0656
     33 S1         -1.0033   -7.3939    5.7682 S.3       1 <0>         0.0422
     34 C25        -1.5460  -10.0489    7.0336 C.3       1 <0>         0.0034
     35 C26        -2.9059  -10.7323    6.8763 C.3       1 <0>        -0.1440
     36 C27        -0.4485  -11.1113    7.1218 C.3       1 <0>        -0.1439
     37 H2          1.0042    1.8801    0.0026 H         1 <0>         0.0834
     38 H3         -0.5455    1.8639   -0.8728 H         1 <0>         0.0776
     39 H4         -0.5286    1.8543    0.9071 H         1 <0>         0.0782
     40 H5         -0.0040   -0.1292   -2.1359 H         1 <0>         0.1413
     41 H6          0.0226   -2.5762   -2.1742 H         1 <0>         0.1474
     42 H7         -1.0021    0.2347    2.8228 H         1 <0>         0.0786
     43 H8          0.5538   -0.5141    3.2548 H         1 <0>         0.0756
     44 H9          0.5245    1.0252    2.3615 H         1 <0>         0.0786
     45 H10         1.9255   -6.5551    2.9754 H         1 <0>         0.1116
     46 H11         3.8175   -7.9917    2.3327 H         1 <0>         0.1280
     47 H12         3.6806   -9.3746    0.3008 H         1 <0>         0.1308
     48 H13        -0.2576   -7.8873   -0.4368 H         1 <0>         0.1375
     49 H14         3.6351   -9.6504   -1.7747 H         1 <0>         0.0680
     50 H15         2.9471  -10.9854   -0.8193 H         1 <0>         0.0731
     51 H16         1.5442  -11.5506   -3.0454 H         1 <0>         0.1213
     52 H17         3.2226  -11.6785   -4.7422 H         1 <0>         0.1094
     53 H18         4.3642  -10.6333   -3.6917 H         1 <0>         0.0996
     54 H19        -1.5443   -9.4484    7.9433 H         1 <0>         0.1007
     55 H20        -2.9076  -11.3329    5.9667 H         1 <0>         0.0698
     56 H21        -3.0910  -11.3755    7.7366 H         1 <0>         0.0747
     57 H22        -3.6878   -9.9755    6.8135 H         1 <0>         0.0598
     58 H23        -0.6336  -11.7544    7.9821 H         1 <0>         0.0747
     59 H24        -0.4503  -11.7118    6.2121 H         1 <0>         0.0697
     60 H25         0.5202  -10.6244    7.2339 H         1 <0>         0.0594
@<TRIPOS>BOND
     1    1    2 1
     2    1   37 1
     3    1   38 1
     4    1   39 1
     5    2   12 ar
     6    2    3 ar
     7    3    4 ar
     8    3   40 1
     9    4    5 ar
    10    4   41 1
    11    5   11 ar
    12    5    6 1
    13    6    7 2
    14    6    8 1
    15    8   17 1
    16    8    9 2
    17    9   10 1
    18    9   14 1
    19   10   11 1
    20   11   12 ar
    21   12   13 1
    22   13   42 1
    23   13   43 1
    24   13   44 1
    25   14   15 2
    26   14   16 am
    27   16   17 1
    28   16   29 1
    29   17   18 1
    30   17   19 1
    31   19   24 ar
    32   19   20 ar
    33   20   21 ar
    34   20   45 1
    35   21   22 ar
    36   21   46 1
    37   22   23 ar
    38   22   47 1
    39   23   24 ar
    40   23   25 1
    41   24   48 1
    42   25   26 1
    43   26   27 1
    44   26   49 1
    45   26   50 1
    46   27   28 2
    47   27   51 1
    48   28   52 1
    49   28   53 1
    50   29   33 1
    51   29   30 2
    52   30   31 1
    53   31   32 2
    54   32   33 1
    55   32   34 1
    56   34   35 1
    57   34   36 1
    58   34   54 1
    59   35   55 1
    60   35   56 1
    61   35   57 1
    62   36   58 1
    63   36   59 1
    64   36   60 1
@<TRIPOS>MOLECULE
ZINC02161223
   44    47     0     0     0
SMALL
USER_CHARGES
4-[3,5-bis(trifluoromethyl)phenyl]-3-(2-phenoxy-3-pyridyl)-1H-1,2,4-triazole-5-thione
@<TRIPOS>ATOM
      1 C1          2.5165    6.2003   -4.2268 C.ar      1 <0>        -0.1223
      2 C2          2.1227    4.8766   -4.2940 C.ar      1 <0>        -0.1095
      3 C3          1.1273    4.4076   -3.4588 C.ar      1 <0>        -0.1120
      4 C4          0.5226    5.2662   -2.5520 C.ar      1 <0>         0.0975
      5 C5          0.9160    6.5953   -2.4902 C.ar      1 <0>        -0.1138
      6 C6          1.9152    7.0581   -3.3243 C.ar      1 <0>        -0.1090
      7 O1         -0.4572    4.8074   -1.7296 O.3       1 <0>        -0.2259
      8 C7         -0.1041    3.9666   -0.7262 C.ar      1 <0>         0.3491
      9 C8         -1.0682    3.5437    0.1995 C.ar      1 <0>        -0.0649
     10 C9         -0.6839    2.6729    1.2225 C.ar      1 <0>        -0.0263
     11 C10         0.6412    2.2734    1.2833 C.ar      1 <0>        -0.2014
     12 C11         1.5335    2.7337    0.3337 C.ar      1 <0>         0.1443
     13 N1          1.1465    3.5516   -0.6271 N.ar      1 <0>        -0.5241
     14 C12        -2.4685    4.0061    0.0917 C.2       1 <0>         0.2127
     15 N2         -2.8526    5.2420   -0.0689 N.2       1 <0>        -0.2763
     16 N3         -4.2528    5.2572   -0.1273 N.2       1 <0>        -0.3694
     17 C13        -4.6796    3.9856    0.0141 C.2       1 <0>         0.3951
     18 S1         -6.3094    3.4616    0.0196 S.3       1 <0>        -0.7481
     19 N4         -3.5915    3.2018    0.1502 N.pl3     1 <0>        -0.4697
     20 C14        -3.5975    1.8114    0.3207 C.ar      1 <0>         0.1608
     21 C15        -3.0917    0.9861   -0.6750 C.ar      1 <0>        -0.0288
     22 C16        -3.0943   -0.3841   -0.5016 C.ar      1 <0>        -0.1786
     23 C17        -3.6098   -0.9349    0.6573 C.ar      1 <0>        -0.0237
     24 C18        -4.1194   -0.1160    1.6482 C.ar      1 <0>        -0.1768
     25 C19        -4.1145    1.2552    1.4833 C.ar      1 <0>        -0.0074
     26 C20        -4.6803   -0.7204    2.9096 C.3       1 <0>         0.5166
     27 F1         -6.0462   -0.9706    2.7396 F         1 <0>        -0.1674
     28 F2         -4.0173   -1.9208    3.1864 F         1 <0>        -0.1756
     29 F3         -4.4981    0.1691    3.9740 F         1 <0>        -0.1721
     30 C21        -2.5399   -1.2801   -1.5790 C.3       1 <0>         0.5158
     31 F4         -2.6562   -2.6160   -1.1801 F         1 <0>        -0.1738
     32 F5         -3.2569   -1.0832   -2.7640 F         1 <0>        -0.1700
     33 F6         -1.1919   -0.9730   -1.7931 F         1 <0>        -0.1730
     34 H1          3.2949    6.5650   -4.8807 H         1 <0>         0.1238
     35 H2          2.5939    4.2086   -4.9998 H         1 <0>         0.1256
     36 H3          0.8198    3.3737   -3.5120 H         1 <0>         0.1232
     37 H4          0.4440    7.2666   -1.7881 H         1 <0>         0.1322
     38 H5          2.2244    8.0917   -3.2741 H         1 <0>         0.1281
     39 H6         -1.4013    2.3231    1.9501 H         1 <0>         0.1389
     40 H7          0.9730    1.6044    2.0635 H         1 <0>         0.1435
     41 H8          2.5655    2.4183    0.3783 H         1 <0>         0.1632
     42 H9         -2.6927    1.4155   -1.5821 H         1 <0>         0.1421
     43 H10        -3.6148   -2.0069    0.7886 H         1 <0>         0.1548
     44 H11        -4.5126    1.8943    2.2576 H         1 <0>         0.1526
@<TRIPOS>BOND
     1    1    6 ar
     2    1    2 ar
     3    1   34 1
     4    2    3 ar
     5    2   35 1
     6    3    4 ar
     7    3   36 1
     8    4    5 ar
     9    4    7 1
    10    5    6 ar
    11    5   37 1
    12    6   38 1
    13    7    8 1
    14    8   13 ar
    15    8    9 ar
    16    9   10 ar
    17    9   14 1
    18   10   11 ar
    19   10   39 1
    20   11   12 ar
    21   11   40 1
    22   12   13 ar
    23   12   41 1
    24   14   19 1
    25   14   15 2
    26   15   16 1
    27   16   17 2
    28   17   18 1
    29   17   19 1
    30   19   20 1
    31   20   25 ar
    32   20   21 ar
    33   21   22 ar
    34   21   42 1
    35   22   23 ar
    36   22   30 1
    37   23   24 ar
    38   23   43 1
    39   24   25 ar
    40   24   26 1
    41   25   44 1
    42   26   27 1
    43   26   28 1
    44   26   29 1
    45   30   31 1
    46   30   32 1
    47   30   33 1
@<TRIPOS>MOLECULE
ZINC35704672
   65    68     0     0     0
SMALL
USER_CHARGES

@<TRIPOS>ATOM
      1 C1          0.9952    1.4504    1.8265 C.3       1 <0>        -0.1086
      2 C2          0.8132    0.0067    1.4346 C.ar      1 <0>        -0.0909
      3 C3          0.4351   -0.3170    0.1449 C.ar      1 <0>        -0.1246
      4 C4          0.2682   -1.6412   -0.2147 C.ar      1 <0>        -0.0741
      5 C5          0.4797   -2.6419    0.7153 C.ar      1 <0>        -0.0750
      6 C6          0.8586   -2.3183    2.0047 C.ar      1 <0>        -0.0876
      7 C7          1.0297   -0.9942    2.3631 C.ar      1 <0>        -0.1225
      8 C8          0.2967   -4.0855    0.3236 C.3       1 <0>         0.2606
      9 H1         -0.2243   -4.1068   -0.6336 H         1 <0>         0.0732
     10 C9          1.6680   -4.6903    0.1208 C.2       1 <0>        -0.3901
     11 C10         2.0068   -5.7897    0.8860 C.2       1 <0>         0.3004
     12 N1          1.1494   -6.2862    1.7629 N.2       1 <0>        -0.5974
     13 C11        -0.0571   -5.8081    1.9877 C.2       1 <0>         0.3201
     14 N2         -0.5820   -4.7272    1.3375 N.pl3     1 <0>        -0.5123
     15 C12        -1.8629   -4.3481    1.6863 C.2       1 <0>         0.2318
     16 C13        -2.4933   -5.0709    2.6383 C.2       1 <0>        -0.3066
     17 S1         -1.2673   -6.2960    3.0434 S.3       1 <0>         0.1389
     18 C14        -2.5177   -3.1988    1.0452 C.2       1 <0>        -0.4672
     19 C15        -3.8135   -2.9337    1.2995 C.2       1 <0>         0.5032
     20 O1         -4.4817   -3.6535    2.2335 O.3       1 <0>        -0.7025
     21 N3         -4.4630   -1.9260    0.6068 N.pl3     1 <0>        -0.7474
     22 C16        -5.8373   -1.5622    0.9605 C.3       1 <0>         0.1942
     23 H2         -6.3682   -2.4467    1.3123 H         1 <0>         0.0917
     24 C17        -5.8166   -0.5060    2.0672 C.3       1 <0>        -0.1522
     25 C18        -6.5374   -1.0053   -0.2523 C.ar      1 <0>        -0.0758
     26 C19        -5.8590   -0.1684   -1.1185 C.ar      1 <0>        -0.1133
     27 C20        -6.5012    0.3424   -2.2310 C.ar      1 <0>        -0.1195
     28 C21        -7.8217    0.0160   -2.4774 C.ar      1 <0>        -0.1302
     29 C22        -8.4998   -0.8216   -1.6117 C.ar      1 <0>        -0.1200
     30 C23        -7.8563   -1.3359   -0.5016 C.ar      1 <0>        -0.1126
     31 C24         3.3619   -6.4280    0.7204 C.3       1 <0>        -0.1083
     32 C25         2.5642   -4.1542   -0.8118 C.2       1 <0>         0.5376
     33 O2          3.7039   -4.5812   -0.8770 O.2       1 <0>        -0.5491
     34 O3          2.1656   -3.1633   -1.6398 O.3       1 <0>        -0.3475
     35 C26         3.1322   -2.6637   -2.5661 C.3       1 <0>         0.0825
     36 C27         3.0544   -3.4658   -3.8667 C.3       1 <0>        -0.1679
     37 C28         2.8444   -1.1896   -2.8581 C.3       1 <0>        -0.1463
     38 H3          2.0262    1.7505    1.6392 H         1 <0>         0.0637
     39 H4          0.3225    2.0743    1.2380 H         1 <0>         0.0621
     40 H5          0.7686    1.5706    2.8859 H         1 <0>         0.0615
     41 H6          0.2699    0.4648   -0.5817 H         1 <0>         0.1145
     42 H7         -0.0279   -1.8941   -1.2221 H         1 <0>         0.1187
     43 H8          1.0235   -3.1001    2.7314 H         1 <0>         0.1033
     44 H9          1.3294   -0.7415    3.3695 H         1 <0>         0.1131
     45 H10        -3.4843   -4.9397    3.0471 H         1 <0>         0.2371
     46 H11        -1.9596   -2.5668    0.3702 H         1 <0>         0.0908
     47 H12        -4.0080   -1.4609   -0.1126 H         1 <0>         0.3836
     48 H13        -5.2856    0.3786    1.7154 H         1 <0>         0.0476
     49 H14        -6.8391   -0.2353    2.3303 H         1 <0>         0.0517
     50 H15        -5.3102   -0.9087    2.9444 H         1 <0>         0.0652
     51 H16        -4.8274    0.0866   -0.9260 H         1 <0>         0.1196
     52 H17        -5.9714    0.9968   -2.9073 H         1 <0>         0.1186
     53 H18        -8.3236    0.4156   -3.3462 H         1 <0>         0.1171
     54 H19        -9.5315   -1.0764   -1.8041 H         1 <0>         0.1191
     55 H20        -8.3850   -1.9932    0.1728 H         1 <0>         0.1225
     56 H21         4.0871   -5.9088    1.3470 H         1 <0>         0.0805
     57 H22         3.3090   -7.4754    1.0175 H         1 <0>         0.0636
     58 H23         3.6698   -6.3614   -0.3231 H         1 <0>         0.1041
     59 H24         4.1299   -2.7613   -2.1382 H         1 <0>         0.0769
     60 H25         2.0566   -3.3682   -4.2946 H         1 <0>         0.0610
     61 H26         3.7916   -3.0847   -4.5733 H         1 <0>         0.0652
     62 H27         3.2594   -4.5160   -3.6587 H         1 <0>         0.0595
     63 H28         2.8999   -0.6181   -1.9316 H         1 <0>         0.0626
     64 H29         3.5817   -0.8085   -3.5647 H         1 <0>         0.0686
     65 H30         1.8467   -1.0920   -3.2860 H         1 <0>         0.0633
@<TRIPOS>BOND
     1    1    2 1
     2    1   38 1
     3    1   39 1
     4    1   40 1
     5    2    7 ar
     6    2    3 ar
     7    3    4 ar
     8    3   41 1
     9    4    5 ar
    10    4   42 1
    11    5    6 ar
    12    5    8 1
    13    6    7 ar
    14    6   43 1
    15    7   44 1
    16    8    9 1
    17    8   14 1
    18    8   10 1
    19   10   11 2
    20   10   32 1
    21   11   12 1
    22   11   31 1
    23   12   13 2
    24   13   17 1
    25   13   14 1
    26   14   15 1
    27   15   16 2
    28   15   18 1
    29   16   17 1
    30   16   45 1
    31   18   19 2
    32   18   46 1
    33   19   20 1
    34   19   21 1
    35   21   22 1
    36   21   47 1
    37   22   23 1
    38   22   24 1
    39   22   25 1
    40   24   48 1
    41   24   49 1
    42   24   50 1
    43   25   30 ar
    44   25   26 ar
    45   26   27 ar
    46   26   51 1
    47   27   28 ar
    48   27   52 1
    49   28   29 ar
    50   28   53 1
    51   29   30 ar
    52   29   54 1
    53   30   55 1
    54   31   56 1
    55   31   57 1
    56   31   58 1
    57   32   33 2
    58   32   34 1
    59   34   35 1
    60   35   36 1
    61   35   37 1
    62   35   59 1
    63   36   60 1
    64   36   61 1
    65   36   62 1
    66   37   63 1
    67   37   64 1
    68   37   65 1
@<TRIPOS>MOLECULE
ZINC36063608
   65    68     0     0     0
SMALL
USER_CHARGES

@<TRIPOS>ATOM
      1 C1         -2.4857   -3.6377   -2.2042 C.3       1 <0>        -0.1626
      2 C2         -2.9031   -2.1936   -1.9192 C.3       1 <0>         0.1354
      3 N1         -2.4383   -1.8050   -0.5854 N.pl3     1 <0>        -0.6393
      4 C3         -1.1564   -1.1132   -0.4291 C.3       1 <0>         0.1080
      5 C4         -3.2106   -2.0915    0.5276 C.2       1 <0>         0.5016
      6 O1         -4.3017   -2.8867    0.4089 O.3       1 <0>        -0.7008
      7 C5         -2.8774   -1.5801    1.7282 C.2       1 <0>        -0.4643
      8 C6         -3.7501   -1.8031    2.8899 C.2       1 <0>         0.2308
      9 C7         -4.8054   -2.6443    2.8209 C.2       1 <0>        -0.3048
     10 S1         -5.4792   -2.5262    4.4660 S.3       1 <0>         0.1361
     11 C8         -4.3852   -1.4305    5.1139 C.2       1 <0>         0.3237
     12 N2         -4.2938   -0.8949    6.3138 N.2       1 <0>        -0.5956
     13 C9         -3.3625   -0.0321    6.6863 C.2       1 <0>         0.3006
     14 C10        -2.3879    0.3743    5.7952 C.2       1 <0>        -0.3866
     15 C11        -2.4282   -0.1989    4.3962 C.3       1 <0>         0.2624
     16 H1         -1.4783   -0.7006    4.2117 H         1 <0>         0.0680
     17 N3         -3.5174   -1.1648    4.0918 N.pl3     1 <0>        -0.5117
     18 C12        -2.5372    0.9499    3.4271 C.ar      1 <0>        -0.0732
     19 C13        -1.5088    1.2050    2.5389 C.ar      1 <0>        -0.0596
     20 C14        -1.6088    2.2586    1.6500 C.ar      1 <0>        -0.1237
     21 C15        -2.7374    3.0573    1.6487 C.ar      1 <0>        -0.0847
     22 C16        -3.7658    2.8018    2.5360 C.ar      1 <0>        -0.1280
     23 C17        -3.6676    1.7452    3.4223 C.ar      1 <0>        -0.0547
     24 C18        -4.7913    1.4633    4.3862 C.3       1 <0>        -0.1203
     25 C19        -2.8459    4.2068    0.6802 C.3       1 <0>        -0.1075
     26 C20        -1.3962    1.2870    6.1746 C.2       1 <0>         0.5358
     27 O2         -1.3253    1.6640    7.3315 O.2       1 <0>        -0.5511
     28 O3         -0.5176    1.7500    5.2580 O.3       1 <0>        -0.3438
     29 C21         0.5363    2.5887    5.7354 C.3       1 <0>         0.1101
     30 C22         1.3422    3.0966    4.5676 C.ar      1 <0>        -0.0841
     31 C23         2.3657    2.3268    4.0473 C.ar      1 <0>        -0.0955
     32 C24         3.1050    2.7926    2.9761 C.ar      1 <0>        -0.1236
     33 C25         2.8203    4.0280    2.4249 C.ar      1 <0>        -0.1149
     34 C26         1.7962    4.7973    2.9447 C.ar      1 <0>        -0.1223
     35 C27         1.0542    4.3296    4.0131 C.ar      1 <0>        -0.0924
     36 C28        -3.3650    0.5113    8.0919 C.3       1 <0>        -0.0927
     37 H2         -2.9056   -3.9557   -3.1584 H         1 <0>         0.0483
     38 H3         -1.3983   -3.6998   -2.2470 H         1 <0>         0.0409
     39 H4         -2.8557   -4.2862   -1.4101 H         1 <0>         0.0647
     40 H5         -2.4601   -1.5334   -2.6650 H         1 <0>         0.0507
     41 H6         -3.9893   -2.1140   -1.9630 H         1 <0>         0.0685
     42 H7         -1.3150   -0.0365   -0.4880 H         1 <0>         0.0348
     43 H8         -0.7237   -1.3643    0.5393 H         1 <0>         0.0605
     44 H9         -0.4766   -1.4242   -1.2224 H         1 <0>         0.0457
     45 H10        -1.9691   -1.0061    1.8375 H         1 <0>         0.0953
     46 H11        -5.1507   -3.2351    1.9853 H         1 <0>         0.2362
     47 H12        -0.6273    0.5811    2.5399 H         1 <0>         0.1103
     48 H13        -0.8052    2.4583    0.9567 H         1 <0>         0.1106
     49 H14        -4.6472    3.4259    2.5353 H         1 <0>         0.1107
     50 H15        -4.5641    1.9159    5.3514 H         1 <0>         0.0647
     51 H16        -5.7182    1.8842    3.9967 H         1 <0>         0.0555
     52 H17        -4.9042    0.3860    4.5076 H         1 <0>         0.0692
     53 H18        -3.3118    3.8615   -0.2427 H         1 <0>         0.0647
     54 H19        -3.4541    4.9968    1.1207 H         1 <0>         0.0591
     55 H20        -1.8504    4.5934    0.4622 H         1 <0>         0.0604
     56 H21         0.1111    3.4331    6.2780 H         1 <0>         0.0689
     57 H22         1.1824    2.0169    6.4015 H         1 <0>         0.0668
     58 H23         2.5881    1.3617    4.4779 H         1 <0>         0.1216
     59 H24         3.9051    2.1916    2.5701 H         1 <0>         0.1214
     60 H25         3.3984    4.3922    1.5885 H         1 <0>         0.1197
     61 H26         1.5740    5.7626    2.5143 H         1 <0>         0.1207
     62 H27         0.2516    4.9291    4.4168 H         1 <0>         0.1201
     63 H28        -4.2000    0.0823    8.6458 H         1 <0>         0.0640
     64 H29        -2.4289    0.2487    8.5847 H         1 <0>         0.0885
     65 H30        -3.4680    1.5960    8.0619 H         1 <0>         0.0827
@<TRIPOS>BOND
     1    1    2 1
     2    1   37 1
     3    1   38 1
     4    1   39 1
     5    2    3 1
     6    2   40 1
     7    2   41 1
     8    3    4 1
     9    3    5 1
    10    4   42 1
    11    4   43 1
    12    4   44 1
    13    5    6 1
    14    5    7 2
    15    7    8 1
    16    7   45 1
    17    8   17 1
    18    8    9 2
    19    9   10 1
    20    9   46 1
    21   10   11 1
    22   11   17 1
    23   11   12 2
    24   12   13 1
    25   13   14 2
    26   13   36 1
    27   14   15 1
    28   14   26 1
    29   15   16 1
    30   15   17 1
    31   15   18 1
    32   18   23 ar
    33   18   19 ar
    34   19   20 ar
    35   19   47 1
    36   20   21 ar
    37   20   48 1
    38   21   22 ar
    39   21   25 1
    40   22   23 ar
    41   22   49 1
    42   23   24 1
    43   24   50 1
    44   24   51 1
    45   24   52 1
    46   25   53 1
    47   25   54 1
    48   25   55 1
    49   26   27 2
    50   26   28 1
    51   28   29 1
    52   29   30 1
    53   29   56 1
    54   29   57 1
    55   30   35 ar
    56   30   31 ar
    57   31   32 ar
    58   31   58 1
    59   32   33 ar
    60   32   59 1
    61   33   34 ar
    62   33   60 1
    63   34   35 ar
    64   34   61 1
    65   35   62 1
    66   36   63 1
    67   36   64 1
    68   36   65 1
@<TRIPOS>MOLECULE
ZINC02183691
   58    62     0     0     0
SMALL
USER_CHARGES

@<TRIPOS>ATOM
      1 C1          1.1443    1.0173    0.3172 C.ar      1 <0>        -0.1181
      2 C2          1.0926   -0.3590    0.1989 C.ar      1 <0>        -0.1068
      3 C3          2.1812   -1.0515   -0.2973 C.ar      1 <0>        -0.0794
      4 C4          3.3214   -0.3676   -0.6756 C.ar      1 <0>        -0.0595
      5 C5          3.3728    1.0088   -0.5582 C.ar      1 <0>        -0.1075
      6 C6          2.2847    1.7011   -0.0606 C.ar      1 <0>        -0.1192
      7 C7          4.5086   -1.1226   -1.2156 C.3       1 <0>        -0.0020
      8 C8          4.9203   -2.1841   -0.2283 C.ar      1 <0>        -0.0433
      9 C9          4.1620   -3.3317   -0.0909 C.ar      1 <0>        -0.1056
     10 C10         4.5396   -4.3054    0.8148 C.ar      1 <0>        -0.1192
     11 C11         5.6758   -4.1316    1.5827 C.ar      1 <0>        -0.1251
     12 C12         6.4346   -2.9844    1.4447 C.ar      1 <0>        -0.1193
     13 C13         6.0594   -2.0127    0.5359 C.ar      1 <0>        -0.1048
     14 S1          4.0631   -1.9028   -2.7915 S.3       1 <0>        -0.0878
     15 C14         3.7540   -0.5427   -3.8682 C.ar      1 <0>        -0.2285
     16 C15         2.4741    0.0178   -3.9792 C.ar      1 <0>        -0.0072
     17 C16         2.3088    1.0911   -4.8508 C.ar      1 <0>        -0.1148
     18 N1          3.3389    1.5453   -5.5369 N.ar      1 <0>        -0.1722
     19 N2          4.5117    1.0353   -5.4383 N.ar      1 <0>        -0.3521
     20 C17         4.7767    0.0175   -4.6357 C.ar      1 <0>         0.3953
     21 O1          6.0371   -0.4832   -4.5624 O.3       1 <0>        -0.6646
     22 S2          1.1192   -0.6150   -3.0472 S.3       1 <0>        -0.0317
     23 C18        -0.2787    0.4309   -3.5396 C.3       1 <0>        -0.0213
     24 C19        -0.5807    0.2112   -4.9996 C.ar      1 <0>        -0.0736
     25 C20        -0.7851    1.2944   -5.8338 C.ar      1 <0>        -0.1072
     26 C21        -1.0621    1.0928   -7.1730 C.ar      1 <0>        -0.1157
     27 C22        -1.1343   -0.1919   -7.6782 C.ar      1 <0>        -0.1195
     28 C23        -0.9289   -1.2751   -6.8442 C.ar      1 <0>        -0.1185
     29 C24        -0.6477   -1.0734   -5.5058 C.ar      1 <0>        -0.0988
     30 C25        -1.4891    0.0719   -2.7167 C.ar      1 <0>        -0.0448
     31 C26        -1.9067   -1.2436   -2.6392 C.ar      1 <0>        -0.1015
     32 C27        -3.0170   -1.5730   -1.8844 C.ar      1 <0>        -0.1176
     33 C28        -3.7093   -0.5869   -1.2067 C.ar      1 <0>        -0.1211
     34 C29        -3.2911    0.7284   -1.2835 C.ar      1 <0>        -0.1189
     35 C30        -2.1783    1.0572   -2.0348 C.ar      1 <0>        -0.1027
     36 H1          0.2921    1.5588    0.7007 H         1 <0>         0.1117
     37 H2          0.2017   -0.8933    0.4945 H         1 <0>         0.1133
     38 H3          2.1410   -2.1268   -0.3891 H         1 <0>         0.1210
     39 H4          4.2639    1.5430   -0.8531 H         1 <0>         0.1105
     40 H5          2.3250    2.7764    0.0315 H         1 <0>         0.1129
     41 H6          5.3371   -0.4322   -1.3734 H         1 <0>         0.0961
     42 H7          3.2743   -3.4674   -0.6909 H         1 <0>         0.1289
     43 H8          3.9468   -5.2016    0.9227 H         1 <0>         0.1208
     44 H9          5.9705   -4.8920    2.2908 H         1 <0>         0.1182
     45 H10         7.3221   -2.8485    2.0449 H         1 <0>         0.1202
     46 H11         6.6542   -1.1181    0.4254 H         1 <0>         0.1211
     47 H12         1.3381    1.5506   -4.9649 H         1 <0>         0.1443
     48 H13        -0.0249    1.4781   -3.3747 H         1 <0>         0.1007
     49 H14        -0.7288    2.2981   -5.4391 H         1 <0>         0.1201
     50 H15        -1.2225    1.9390   -7.8246 H         1 <0>         0.1210
     51 H16        -1.3514   -0.3494   -8.7243 H         1 <0>         0.1186
     52 H17        -0.9856   -2.2788   -7.2388 H         1 <0>         0.1203
     53 H18        -0.4836   -1.9195   -4.8550 H         1 <0>         0.1276
     54 H19        -1.3658   -2.0140   -3.1687 H         1 <0>         0.1265
     55 H20        -3.3437   -2.6006   -1.8244 H         1 <0>         0.1212
     56 H21        -4.5771   -0.8441   -0.6175 H         1 <0>         0.1187
     57 H22        -3.8322    1.4988   -0.7542 H         1 <0>         0.1204
     58 H23        -1.8494    2.0843   -2.0918 H         1 <0>         0.1206
@<TRIPOS>BOND
     1    1    6 ar
     2    1    2 ar
     3    1   36 1
     4    2    3 ar
     5    2   37 1
     6    3    4 ar
     7    3   38 1
     8    4    5 ar
     9    4    7 1
    10    5    6 ar
    11    5   39 1
    12    6   40 1
    13    7    8 1
    14    7   14 1
    15    7   41 1
    16    8   13 ar
    17    8    9 ar
    18    9   10 ar
    19    9   42 1
    20   10   11 ar
    21   10   43 1
    22   11   12 ar
    23   11   44 1
    24   12   13 ar
    25   12   45 1
    26   13   46 1
    27   14   15 1
    28   15   20 ar
    29   15   16 ar
    30   16   22 1
    31   16   17 ar
    32   17   47 1
    33   17   18 ar
    34   18   19 ar
    35   19   20 ar
    36   20   21 1
    37   22   23 1
    38   23   24 1
    39   23   30 1
    40   23   48 1
    41   24   29 ar
    42   24   25 ar
    43   25   26 ar
    44   25   49 1
    45   26   27 ar
    46   26   50 1
    47   27   28 ar
    48   27   51 1
    49   28   29 ar
    50   28   52 1
    51   29   53 1
    52   30   35 ar
    53   30   31 ar
    54   31   32 ar
    55   31   54 1
    56   32   33 ar
    57   32   55 1
    58   33   34 ar
    59   33   56 1
    60   34   35 ar
    61   34   57 1
    62   35   58 1
@<TRIPOS>MOLECULE
ZINC59247567
   61    65     0     0     0
SMALL
USER_CHARGES

@<TRIPOS>ATOM
      1 C1          0.0384    1.4018    0.2926 C.3       1 <0>        -0.1466
      2 C2         -0.0044   -0.0843    0.6543 C.3       1 <0>         0.0644
      3 O1         -1.3492   -0.5585    0.5621 O.3       1 <0>        -0.3185
      4 C3         -1.5607   -1.8555    0.8506 C.2       1 <0>         0.4967
      5 O2         -0.5290   -2.6425    1.2065 O.3       1 <0>        -0.6275
      6 C4         -2.8445   -2.3824    0.7809 C.2       1 <0>        -0.4606
      7 C5         -3.1254   -3.7908    1.0862 C.2       1 <0>         0.3282
      8 S1         -4.8839   -3.9358    0.8478 S.3       1 <0>        -0.1260
      9 C6         -5.2758   -2.2653    0.3726 C.2       1 <0>        -0.1881
     10 C7         -6.4929   -1.7479    0.0546 C.2       1 <0>         0.0257
     11 C8         -7.6578   -2.6282   -0.0501 C.2       1 <0>        -0.1527
     12 C9         -7.6513   -3.9943   -0.0722 C.2       1 <0>         0.0892
     13 N1         -8.9246   -4.4561   -0.1783 N.pl3     1 <0>        -0.4703
     14 C10        -9.8152   -3.4035   -0.2297 C.ar      1 <0>         0.0976
     15 C11        -9.0708   -2.2156   -0.1460 C.ar      1 <0>        -0.0822
     16 C12        -9.7180   -0.9831   -0.1680 C.ar      1 <0>        -0.0692
     17 C13       -11.0915   -0.9354   -0.2686 C.ar      1 <0>        -0.1465
     18 C14       -11.8286   -2.1078   -0.3473 C.ar      1 <0>        -0.1038
     19 C15       -11.2003   -3.3343   -0.3357 C.ar      1 <0>        -0.1279
     20 C16        -9.2991   -5.8714   -0.2308 C.3       1 <0>         0.1485
     21 C17        -9.4372   -6.3016   -1.6684 C.ar      1 <0>        -0.0855
     22 C18       -10.6569   -6.1880   -2.3097 C.ar      1 <0>        -0.1097
     23 C19       -10.7850   -6.5822   -3.6283 C.ar      1 <0>        -0.0917
     24 C20        -9.6938   -7.0908   -4.3073 C.ar      1 <0>        -0.1470
     25 C21        -8.4721   -7.2050   -3.6663 C.ar      1 <0>         0.1008
     26 C22        -8.3434   -6.8041   -2.3470 C.ar      1 <0>        -0.1316
     27 F1         -7.4050   -7.7025   -4.3288 F         1 <0>        -0.1361
     28 C23        -3.9835   -1.5762    0.4098 C.2       1 <0>         0.4306
     29 O3         -3.8754   -0.3912    0.1387 O.2       1 <0>        -0.4952
     30 N2         -2.2731   -4.7302    1.4520 N.2       1 <0>        -0.4830
     31 C24        -2.7181   -5.9982    1.6969 C.ar      1 <0>         0.1298
     32 C25        -3.8757   -6.2026    2.4532 C.ar      1 <0>        -0.1677
     33 C26        -4.3188   -7.4857    2.6963 C.ar      1 <0>        -0.0977
     34 C27        -3.6200   -8.5695    2.1940 C.ar      1 <0>        -0.1286
     35 C28        -2.4730   -8.3751    1.4444 C.ar      1 <0>        -0.1027
     36 C29        -2.0212   -7.0977    1.1877 C.ar      1 <0>        -0.1237
     37 C30        -4.1103   -9.9685    2.4651 C.3       1 <0>        -0.1037
     38 H1          1.0642    1.7635    0.3629 H         1 <0>         0.0670
     39 H2         -0.3261    1.5385   -0.7255 H         1 <0>         0.0612
     40 H3         -0.5925    1.9620    0.9827 H         1 <0>         0.0613
     41 H4          0.6265   -0.6444   -0.0358 H         1 <0>         0.0551
     42 H5          0.3601   -0.2210    1.6724 H         1 <0>         0.0551
     43 H6         -6.5999   -0.6876   -0.1208 H         1 <0>         0.1432
     44 H7         -6.7680   -4.6131   -0.0148 H         1 <0>         0.1834
     45 H8         -9.1463   -0.0689   -0.1062 H         1 <0>         0.1245
     46 H9        -11.5964    0.0192   -0.2859 H         1 <0>         0.1213
     47 H10       -12.9047   -2.0588   -0.4255 H         1 <0>         0.1219
     48 H11       -11.7838   -4.2411   -0.3962 H         1 <0>         0.1150
     49 H12        -8.5281   -6.4695    0.2550 H         1 <0>         0.1059
     50 H13       -10.2489   -6.0153    0.2844 H         1 <0>         0.1007
     51 H14       -11.5102   -5.7913   -1.7797 H         1 <0>         0.1291
     52 H15       -11.7382   -6.4930   -4.1282 H         1 <0>         0.1346
     53 H16        -9.7944   -7.3994   -5.3374 H         1 <0>         0.1362
     54 H17        -7.3898   -6.8887   -1.8473 H         1 <0>         0.1391
     55 H18        -4.4217   -5.3577    2.8464 H         1 <0>         0.1251
     56 H19        -5.2131   -7.6451    3.2804 H         1 <0>         0.1137
     57 H20        -1.9328   -9.2258    1.0560 H         1 <0>         0.1165
     58 H21        -1.1284   -6.9474    0.5988 H         1 <0>         0.1223
     59 H22        -4.7946  -10.2735    1.6733 H         1 <0>         0.0613
     60 H23        -3.2615  -10.6516    2.4948 H         1 <0>         0.0594
     61 H24        -4.6296   -9.9923    3.4231 H         1 <0>         0.0590
@<TRIPOS>BOND
     1    1    2 1
     2    1   38 1
     3    1   39 1
     4    1   40 1
     5    2    3 1
     6    2   41 1
     7    2   42 1
     8    3    4 1
     9    4    5 1
    10    4    6 2
    11    6    7 1
    12    6   28 1
    13    7   30 2
    14    7    8 1
    15    8    9 1
    16    9   10 2
    17    9   28 1
    18   10   11 1
    19   10   43 1
    20   11   15 1
    21   11   12 2
    22   12   13 1
    23   12   44 1
    24   13   14 1
    25   13   20 1
    26   14   19 ar
    27   14   15 ar
    28   15   16 ar
    29   16   17 ar
    30   16   45 1
    31   17   18 ar
    32   17   46 1
    33   18   19 ar
    34   18   47 1
    35   19   48 1
    36   20   21 1
    37   20   49 1
    38   20   50 1
    39   21   26 ar
    40   21   22 ar
    41   22   23 ar
    42   22   51 1
    43   23   24 ar
    44   23   52 1
    45   24   25 ar
    46   24   53 1
    47   25   26 ar
    48   25   27 1
    49   26   54 1
    50   28   29 2
    51   30   31 1
    52   31   36 ar
    53   31   32 ar
    54   32   33 ar
    55   32   55 1
    56   33   34 ar
    57   33   56 1
    58   34   35 ar
    59   34   37 1
    60   35   36 ar
    61   35   57 1
    62   36   58 1
    63   37   59 1
    64   37   60 1
    65   37   61 1
@<TRIPOS>MOLECULE
ZINC34922891
   63    67     0     0     0
SMALL
USER_CHARGES

@<TRIPOS>ATOM
      1 C1         -0.3432    0.8549    0.0274 C.3       1 <0>        -0.1253
      2 C2         -0.3100   -0.6514   -0.2385 C.3       1 <0>        -0.0907
      3 C3          0.5407   -0.9288   -1.4512 C.2       1 <0>         0.3081
      4 C4          1.9109   -1.0446   -1.3162 C.2       1 <0>        -0.3915
      5 C5          2.7211   -1.3237   -2.5624 C.3       1 <0>         0.2595
      6 H1          3.4473   -0.5191   -2.6778 H         1 <0>         0.0727
      7 N1          1.9729   -1.4520   -3.8414 N.pl3     1 <0>        -0.5124
      8 C6          2.5015   -1.7040   -5.0917 C.2       1 <0>         0.2314
      9 C7          1.6419   -1.7835   -6.1313 C.2       1 <0>        -0.3058
     10 S1          0.0734   -1.4996   -5.3353 S.3       1 <0>         0.1385
     11 C8          0.6167   -1.3031   -3.7594 C.2       1 <0>         0.3197
     12 N2         -0.0301   -1.0652   -2.6369 N.2       1 <0>        -0.5954
     13 C9          3.9481   -1.8793   -5.2852 C.2       1 <0>        -0.4656
     14 C10         4.4243   -2.2775   -6.4805 C.2       1 <0>         0.5032
     15 O1          3.5844   -2.4038   -7.5366 O.3       1 <0>        -0.7030
     16 N3          5.7720   -2.5579   -6.6303 N.pl3     1 <0>        -0.7565
     17 C11         6.3100   -2.8825   -7.9537 C.3       1 <0>         0.1486
     18 C12         7.7849   -3.2680   -7.8241 C.3       1 <0>        -0.0561
     19 C13         8.3383   -3.6020   -9.1855 C.2       1 <0>        -0.1557
     20 C14         8.4292   -4.8244   -9.7326 C.2       1 <0>         0.0505
     21 N4          8.9839   -4.7371  -10.9804 N.pl3     1 <0>        -0.5973
     22 H2          9.1502   -5.4890  -11.5701 H         1 <0>         0.4139
     23 C15         9.2709   -3.4228  -11.2742 C.ar      1 <0>         0.0947
     24 C16         8.8733   -2.6534  -10.1653 C.ar      1 <0>        -0.0994
     25 C17         9.0407   -1.2677  -10.1830 C.ar      1 <0>        -0.0645
     26 C18         9.5875   -0.6643  -11.2805 C.ar      1 <0>        -0.1505
     27 C19         9.9776   -1.4184  -12.3785 C.ar      1 <0>        -0.1006
     28 C20         9.8300   -2.7884  -12.3784 C.ar      1 <0>        -0.1348
     29 C21         3.4848   -2.6041   -2.3422 C.ar      1 <0>        -0.0689
     30 C22         2.8409   -3.8217   -2.4589 C.ar      1 <0>        -0.0908
     31 C23         3.5414   -4.9962   -2.2568 C.ar      1 <0>        -0.1231
     32 C24         4.8859   -4.9530   -1.9385 C.ar      1 <0>        -0.1231
     33 C25         5.5300   -3.7354   -1.8227 C.ar      1 <0>        -0.1256
     34 C26         4.8305   -2.5611   -2.0290 C.ar      1 <0>        -0.0790
     35 C27         2.5289   -0.9076   -0.0673 C.2       1 <0>         0.5371
     36 O2          1.8513   -0.7600    0.9349 O.2       1 <0>        -0.5459
     37 O3          3.8767   -0.9390    0.0267 O.3       1 <0>        -0.3566
     38 C28         4.4395   -0.7932    1.3321 C.3       1 <0>         0.0415
     39 H3          0.6702    1.2151    0.2044 H         1 <0>         0.0541
     40 H4         -0.7651    1.3673   -0.8372 H         1 <0>         0.0479
     41 H5         -0.9585    1.0555    0.9045 H         1 <0>         0.0563
     42 H6          0.1119   -1.1638    0.6261 H         1 <0>         0.1184
     43 H7         -1.3234   -1.0116   -0.4155 H         1 <0>         0.0688
     44 H8          1.8514   -1.9700   -7.1742 H         1 <0>         0.2367
     45 H9          4.6291   -1.6887   -4.4689 H         1 <0>         0.0871
     46 H10         6.3599   -2.5394   -5.8589 H         1 <0>         0.3843
     47 H11         5.7521   -3.7173   -8.3779 H         1 <0>         0.0532
     48 H12         6.2173   -2.0145   -8.6064 H         1 <0>         0.0463
     49 H13         8.3428   -2.4332   -7.3999 H         1 <0>         0.0701
     50 H14         7.8776   -4.1360   -7.1714 H         1 <0>         0.0706
     51 H15         8.1117   -5.7411   -9.2580 H         1 <0>         0.1696
     52 H16         8.7388   -0.6744   -9.3325 H         1 <0>         0.1222
     53 H17         9.7168    0.4078  -11.2937 H         1 <0>         0.1205
     54 H18        10.4076   -0.9271  -13.2388 H         1 <0>         0.1220
     55 H19        10.1355   -3.3663  -13.2382 H         1 <0>         0.1164
     56 H20         1.7904   -3.8555   -2.7076 H         1 <0>         0.1029
     57 H21         3.0382   -5.9475   -2.3473 H         1 <0>         0.1132
     58 H22         5.4330   -5.8706   -1.7800 H         1 <0>         0.1132
     59 H23         6.5804   -3.7016   -1.5737 H         1 <0>         0.1153
     60 H24         5.3346   -1.6099   -1.9422 H         1 <0>         0.1186
     61 H25         4.1388    0.1667    1.7522 H         1 <0>         0.0511
     62 H26         4.0822   -1.5985    1.9739 H         1 <0>         0.0512
     63 H27         5.5266   -0.8363    1.2660 H         1 <0>         0.0891
@<TRIPOS>BOND
     1    1    2 1
     2    1   39 1
     3    1   40 1
     4    1   41 1
     5    2    3 1
     6    2   42 1
     7    2   43 1
     8    3   12 1
     9    3    4 2
    10    4    5 1
    11    4   35 1
    12    5    6 1
    13    5    7 1
    14    5   29 1
    15    7   11 1
    16    7    8 1
    17    8    9 2
    18    8   13 1
    19    9   10 1
    20    9   44 1
    21   10   11 1
    22   11   12 2
    23   13   14 2
    24   13   45 1
    25   14   15 1
    26   14   16 1
    27   16   17 1
    28   16   46 1
    29   17   18 1
    30   17   47 1
    31   17   48 1
    32   18   19 1
    33   18   49 1
    34   18   50 1
    35   19   24 1
    36   19   20 2
    37   20   21 1
    38   20   51 1
    39   21   22 1
    40   21   23 1
    41   23   28 ar
    42   23   24 ar
    43   24   25 ar
    44   25   26 ar
    45   25   52 1
    46   26   27 ar
    47   26   53 1
    48   27   28 ar
    49   27   54 1
    50   28   55 1
    51   29   34 ar
    52   29   30 ar
    53   30   31 ar
    54   30   56 1
    55   31   32 ar
    56   31   57 1
    57   32   33 ar
    58   32   58 1
    59   33   34 ar
    60   33   59 1
    61   34   60 1
    62   35   36 2
    63   35   37 1
    64   37   38 1
    65   38   61 1
    66   38   62 1
    67   38   63 1
@<TRIPOS>MOLECULE
ZINC35969511
   63    66     0     0     0
SMALL
USER_CHARGES

@<TRIPOS>ATOM
      1 C1         -0.5900    1.6019   -0.8217 C.3       1 <0>        -0.1504
      2 C2         -0.6004    0.0749   -0.9184 C.3       1 <0>         0.0669
      3 O1          0.2295   -0.3392   -2.0055 O.3       1 <0>        -0.3534
      4 C3          0.4109   -1.6686   -2.1670 C.2       1 <0>         0.5389
      5 O2         -0.1952   -2.4565   -1.4618 O.2       1 <0>        -0.5502
      6 C4          1.2952   -2.1408   -3.1445 C.2       1 <0>        -0.3900
      7 C5          1.4446   -3.4945   -3.3778 C.2       1 <0>         0.3022
      8 N1          2.2840   -3.9263   -4.3048 N.2       1 <0>        -0.5974
      9 C6          3.0282   -3.1499   -5.0652 C.2       1 <0>         0.3237
     10 N2          3.0282   -1.7849   -4.9928 N.pl3     1 <0>        -0.5104
     11 C7          2.1139   -1.1859   -3.9843 C.3       1 <0>         0.2610
     12 H1          1.4245   -0.5210   -4.5046 H         1 <0>         0.0734
     13 C8          2.9466   -0.3447   -3.0515 C.ar      1 <0>        -0.0741
     14 C9          2.5843    0.9640   -2.7916 C.ar      1 <0>        -0.0741
     15 C10         3.3480    1.7355   -1.9361 C.ar      1 <0>        -0.1322
     16 C11         4.4740    1.1984   -1.3400 C.ar      1 <0>        -0.1173
     17 C12         4.8356   -0.1101   -1.5992 C.ar      1 <0>        -0.1266
     18 C13         4.0692   -0.8832   -2.4516 C.ar      1 <0>        -0.0561
     19 C14         4.4606   -2.3116   -2.7301 C.3       1 <0>        -0.1288
     20 C15         3.8654   -1.1111   -5.8596 C.2       1 <0>         0.2372
     21 C16         4.6156   -1.8492   -6.7072 C.2       1 <0>        -0.3062
     22 S1          4.1342   -3.5094   -6.2755 S.3       1 <0>         0.1423
     23 C17         3.9378    0.3570   -5.8605 C.2       1 <0>        -0.4690
     24 C18         4.6379    0.9961   -6.8174 C.2       1 <0>         0.5021
     25 O3          5.1502    0.3000   -7.8614 O.3       1 <0>        -0.7055
     26 N3          4.8342    2.3643   -6.7345 N.pl3     1 <0>        -0.7519
     27 C19         5.5956    3.0594   -7.7753 C.3       1 <0>         0.1440
     28 C20         5.6640    4.5521   -7.4462 C.3       1 <0>         0.0486
     29 O4          6.4101    4.7407   -6.2422 O.3       1 <0>        -0.3049
     30 C21         6.5661    6.0186   -5.8068 C.ar      1 <0>         0.1359
     31 C22         6.0075    7.0689   -6.5207 C.ar      1 <0>        -0.2126
     32 C23         6.1671    8.3670   -6.0758 C.ar      1 <0>        -0.0815
     33 C24         6.8832    8.6199   -4.9204 C.ar      1 <0>        -0.1659
     34 C25         7.4413    7.5749   -4.2074 C.ar      1 <0>        -0.0814
     35 C26         7.2793    6.2746   -4.6448 C.ar      1 <0>        -0.1538
     36 C27         0.6465   -4.4856   -2.5706 C.3       1 <0>        -0.1175
     37 H2          0.4296    1.9483   -0.6529 H         1 <0>         0.0653
     38 H3         -0.9692    2.0273   -1.7508 H         1 <0>         0.0628
     39 H4         -1.2230    1.9177    0.0075 H         1 <0>         0.0708
     40 H5         -0.2212   -0.3505    0.0108 H         1 <0>         0.0581
     41 H6         -1.6200   -0.2715   -1.0871 H         1 <0>         0.0577
     42 H7          1.7048    1.3835   -3.2572 H         1 <0>         0.1176
     43 H8          3.0655    2.7580   -1.7336 H         1 <0>         0.1139
     44 H9          5.0711    1.8015   -0.6721 H         1 <0>         0.1131
     45 H10         5.7153   -0.5296   -1.1338 H         1 <0>         0.1130
     46 H11         5.1192   -2.3453   -3.5979 H         1 <0>         0.0655
     47 H12         4.9797   -2.7216   -1.8638 H         1 <0>         0.0571
     48 H13         3.5658   -2.9011   -2.9300 H         1 <0>         0.0758
     49 H14         5.3231   -1.5184   -7.4532 H         1 <0>         0.2305
     50 H15         3.4297    0.9233   -5.0940 H         1 <0>         0.0919
     51 H16         4.4675    2.8625   -5.9873 H         1 <0>         0.3877
     52 H17         6.6051    2.6509   -7.8210 H         1 <0>         0.0632
     53 H18         5.1040    2.9218   -8.7383 H         1 <0>         0.0736
     54 H19         6.1529    5.0823   -8.2635 H         1 <0>         0.0703
     55 H20         4.6546    4.9413   -7.3129 H         1 <0>         0.0645
     56 H21         5.4487    6.8719   -7.4236 H         1 <0>         0.1269
     57 H22         5.7325    9.1849   -6.6311 H         1 <0>         0.1218
     58 H23         7.0072    9.6355   -4.5744 H         1 <0>         0.1204
     59 H24         8.0005    7.7751   -3.3054 H         1 <0>         0.1266
     60 H25         7.7117    5.4583   -4.0851 H         1 <0>         0.1303
     61 H26        -0.3370   -4.6143   -3.0228 H         1 <0>         0.0791
     62 H27         1.1667   -5.4433   -2.5538 H         1 <0>         0.0647
     63 H28         0.5323   -4.1162   -1.5515 H         1 <0>         0.1130
@<TRIPOS>BOND
     1    1    2 1
     2    1   37 1
     3    1   38 1
     4    1   39 1
     5    2    3 1
     6    2   40 1
     7    2   41 1
     8    3    4 1
     9    4    5 2
    10    4    6 1
    11    6   11 1
    12    6    7 2
    13    7    8 1
    14    7   36 1
    15    8    9 2
    16    9   22 1
    17    9   10 1
    18   10   11 1
    19   10   20 1
    20   11   12 1
    21   11   13 1
    22   13   18 ar
    23   13   14 ar
    24   14   15 ar
    25   14   42 1
    26   15   16 ar
    27   15   43 1
    28   16   17 ar
    29   16   44 1
    30   17   18 ar
    31   17   45 1
    32   18   19 1
    33   19   46 1
    34   19   47 1
    35   19   48 1
    36   20   21 2
    37   20   23 1
    38   21   22 1
    39   21   49 1
    40   23   24 2
    41   23   50 1
    42   24   25 1
    43   24   26 1
    44   26   27 1
    45   26   51 1
    46   27   28 1
    47   27   52 1
    48   27   53 1
    49   28   29 1
    50   28   54 1
    51   28   55 1
    52   29   30 1
    53   30   35 ar
    54   30   31 ar
    55   31   32 ar
    56   31   56 1
    57   32   33 ar
    58   32   57 1
    59   33   34 ar
    60   33   58 1
    61   34   35 ar
    62   34   59 1
    63   35   60 1
    64   36   61 1
    65   36   62 1
    66   36   63 1
@<TRIPOS>MOLECULE
ZINC36061295
   71    74     0     0     0
SMALL
USER_CHARGES

@<TRIPOS>ATOM
      1 C1         -5.3321   -4.8291   -4.2888 C.3       1 <0>        -0.1511
      2 C2         -4.1079   -4.6186   -5.1820 C.3       1 <0>         0.0583
      3 O1         -2.9218   -4.6842   -4.3876 O.3       1 <0>        -0.3528
      4 C3         -1.7519   -4.5182   -5.0244 C.2       1 <0>         0.4662
      5 O2         -1.7354   -4.3238   -6.2168 O.2       1 <0>        -0.5077
      6 C4         -0.4590   -4.5744   -4.2522 C.3       1 <0>        -0.0737
      7 C5         -0.3253   -5.9432   -3.5808 C.3       1 <0>        -0.1240
      8 C6          0.9731   -5.9845   -2.7688 C.3       1 <0>         0.1362
      9 N1          2.0941   -5.6330   -3.6511 N.pl3     1 <0>        -0.6435
     10 C7          2.0260   -4.3797   -4.4148 C.3       1 <0>         0.1377
     11 C8          0.7159   -4.3564   -5.2084 C.3       1 <0>        -0.1177
     12 C9          3.1940   -6.4670   -3.7605 C.2       1 <0>         0.5023
     13 O3          3.0524   -7.8027   -3.5798 O.3       1 <0>        -0.7005
     14 C10         4.4047   -5.9507   -4.0466 C.2       1 <0>        -0.4579
     15 C11         5.5440   -6.8448   -4.2988 C.2       1 <0>         0.2299
     16 C12         5.3748   -8.1814   -4.4025 C.2       1 <0>        -0.3005
     17 S1          7.0398   -8.7418   -4.6994 S.3       1 <0>         0.1421
     18 C13         7.8201   -7.2561   -4.6706 C.2       1 <0>         0.3211
     19 N2          9.0878   -6.9333   -4.8251 N.2       1 <0>        -0.5963
     20 C14         9.5640   -5.6999   -4.7765 C.2       1 <0>         0.2981
     21 C15         8.7180   -4.6311   -4.5504 C.2       1 <0>        -0.3893
     22 C16         7.2461   -4.9242   -4.3633 C.3       1 <0>         0.2594
     23 H1          6.9481   -4.5369   -3.3890 H         1 <0>         0.0727
     24 N3          6.8240   -6.3480   -4.4439 N.pl3     1 <0>        -0.5129
     25 C17         6.4835   -4.1598   -5.4146 C.ar      1 <0>        -0.0690
     26 C18         6.5146   -4.5778   -6.7318 C.ar      1 <0>        -0.0930
     27 C19         5.8151   -3.8767   -7.6962 C.ar      1 <0>        -0.1238
     28 C20         5.0842   -2.7577   -7.3432 C.ar      1 <0>        -0.1213
     29 C21         5.0525   -2.3401   -6.0258 C.ar      1 <0>        -0.1250
     30 C22         5.7485   -3.0438   -5.0607 C.ar      1 <0>        -0.0745
     31 C23         9.2072   -3.3204   -4.4959 C.2       1 <0>         0.5408
     32 O4         10.3973   -3.1072   -4.6491 O.2       1 <0>        -0.5455
     33 O5          8.3596   -2.2915   -4.2734 O.3       1 <0>        -0.3440
     34 C24         8.9275   -0.9809   -4.2304 C.3       1 <0>         0.1209
     35 C25         9.6042   -0.6741   -5.5678 C.3       1 <0>        -0.1797
     36 C26         7.8227    0.0453   -3.9706 C.3       1 <0>        -0.1383
     37 C27         9.9634   -0.9105   -3.1066 C.3       1 <0>        -0.1817
     38 C28        11.0392   -5.4591   -4.9687 C.3       1 <0>        -0.0907
     39 H2         -5.2690   -5.8063   -3.8101 H         1 <0>         0.0669
     40 H3         -5.3628   -4.0518   -3.5253 H         1 <0>         0.0657
     41 H4         -6.2368   -4.7791   -4.8947 H         1 <0>         0.0768
     42 H5         -4.0772   -5.3959   -5.9455 H         1 <0>         0.0655
     43 H6         -4.1710   -3.6414   -5.6607 H         1 <0>         0.0646
     44 H7         -0.4568   -3.7948   -3.4905 H         1 <0>         0.1060
     45 H8         -1.1745   -6.1076   -2.9176 H         1 <0>         0.0759
     46 H9         -0.3024   -6.7217   -4.3433 H         1 <0>         0.0707
     47 H10         0.9145   -5.2680   -1.9494 H         1 <0>         0.0461
     48 H11         1.1227   -6.9877   -2.3697 H         1 <0>         0.0893
     49 H12         2.0533   -3.5324   -3.7296 H         1 <0>         0.0461
     50 H13         2.8704   -4.3241   -5.1018 H         1 <0>         0.0874
     51 H14         0.7290   -5.1499   -5.9555 H         1 <0>         0.0733
     52 H15         0.6076   -3.3915   -5.7036 H         1 <0>         0.0732
     53 H16         4.5385   -4.8800   -4.0907 H         1 <0>         0.0973
     54 H17         4.4661   -8.7599   -4.3254 H         1 <0>         0.2316
     55 H18         7.0856   -5.4521   -7.0076 H         1 <0>         0.1027
     56 H19         5.8399   -4.2029   -8.7254 H         1 <0>         0.1130
     57 H20         4.5383   -2.2094   -8.0967 H         1 <0>         0.1137
     58 H21         4.4817   -1.4657   -5.7501 H         1 <0>         0.1154
     59 H22         5.7207   -2.7198   -4.0309 H         1 <0>         0.1168
     60 H23         8.8662   -0.7243   -6.3684 H         1 <0>         0.0555
     61 H24        10.0373    0.3256   -5.5350 H         1 <0>         0.0589
     62 H25        10.3913   -1.4052   -5.7529 H         1 <0>         0.0852
     63 H26         7.3406   -0.1733   -3.0178 H         1 <0>         0.0621
     64 H27         8.2558    1.0450   -3.9378 H         1 <0>         0.0691
     65 H28         7.0847   -0.0049   -4.7712 H         1 <0>         0.0644
     66 H29        10.7504   -1.6416   -3.2917 H         1 <0>         0.0860
     67 H30        10.3965    0.0892   -3.0738 H         1 <0>         0.0599
     68 H31         9.4812   -1.1291   -2.1538 H         1 <0>         0.0550
     69 H32        11.5442   -6.4109   -5.1334 H         1 <0>         0.0624
     70 H33        11.1922   -4.8123   -5.8325 H         1 <0>         0.0858
     71 H34        11.4480   -4.9800   -4.0791 H         1 <0>         0.0864
@<TRIPOS>BOND
     1    1    2 1
     2    1   39 1
     3    1   40 1
     4    1   41 1
     5    2    3 1
     6    2   42 1
     7    2   43 1
     8    3    4 1
     9    4    5 2
    10    4    6 1
    11    6   11 1
    12    6    7 1
    13    6   44 1
    14    7    8 1
    15    7   45 1
    16    7   46 1
    17    8    9 1
    18    8   47 1
    19    8   48 1
    20    9   10 1
    21    9   12 1
    22   10   11 1
    23   10   49 1
    24   10   50 1
    25   11   51 1
    26   11   52 1
    27   12   13 1
    28   12   14 2
    29   14   15 1
    30   14   53 1
    31   15   24 1
    32   15   16 2
    33   16   17 1
    34   16   54 1
    35   17   18 1
    36   18   24 1
    37   18   19 2
    38   19   20 1
    39   20   21 2
    40   20   38 1
    41   21   22 1
    42   21   31 1
    43   22   23 1
    44   22   24 1
    45   22   25 1
    46   25   30 ar
    47   25   26 ar
    48   26   27 ar
    49   26   55 1
    50   27   28 ar
    51   27   56 1
    52   28   29 ar
    53   28   57 1
    54   29   30 ar
    55   29   58 1
    56   30   59 1
    57   31   32 2
    58   31   33 1
    59   33   34 1
    60   34   35 1
    61   34   36 1
    62   34   37 1
    63   35   60 1
    64   35   61 1
    65   35   62 1
    66   36   63 1
    67   36   64 1
    68   36   65 1
    69   37   66 1
    70   37   67 1
    71   37   68 1
    72   38   69 1
    73   38   70 1
    74   38   71 1
@<TRIPOS>MOLECULE
ZINC39998227
   46    49     0     0     0
SMALL
USER_CHARGES

@<TRIPOS>ATOM
      1 C1         -0.0167    1.3782    0.0096 C.ar      1 <0>        -0.0709
      2 C2          1.1703    2.0860    0.0021 C.ar      1 <0>        -0.1535
      3 C3          2.3786    1.4101   -0.0131 C.ar      1 <0>         0.0986
      4 C4          2.3962    0.0256   -0.0207 C.ar      1 <0>        -0.1535
      5 C5          1.2079   -0.6800   -0.0132 C.ar      1 <0>        -0.0710
      6 C6          0.0021   -0.0041    0.0020 C.ar      1 <0>        -0.0793
      7 C7         -1.2930   -0.7747    0.0103 C.3       1 <0>        -0.0680
      8 S1         -1.8290   -1.0747   -1.6966 S.3       1 <0>         0.0076
      9 C8         -3.3346   -1.9725   -1.5190 C.2       1 <0>        -0.0703
     10 N1         -3.9726   -2.3573   -0.4213 N.2       1 <0>        -0.2417
     11 N2         -5.0557   -3.0016   -0.4699 N.2       1 <0>        -0.3410
     12 C9         -5.6223   -3.3333   -1.6275 C.2       1 <0>         0.3650
     13 S2         -4.4426   -2.6178   -2.7686 S.3       1 <0>        -0.0596
     14 N3         -6.7703   -4.0160   -1.8732 N.2       1 <0>        -0.5994
     15 C10        -7.5013   -4.4561   -0.8714 C.2       1 <0>         0.4656
     16 O1         -7.1091   -4.2284    0.4039 O.3       1 <0>        -0.6240
     17 C11        -8.7410   -5.1934   -1.1367 C.2       1 <0>        -0.0129
     18 C12        -9.5117   -5.6574   -0.0806 C.2       1 <0>         0.0186
     19 C13       -10.6996   -6.3639   -0.3349 C.2       1 <0>         0.0051
     20 C14       -11.5624   -6.8759    0.6227 C.2       1 <0>        -0.1549
     21 C15       -12.6052   -7.4966   -0.0651 C.2       1 <0>        -0.1859
     22 C16       -12.3481   -7.3450   -1.4107 C.2       1 <0>         0.0345
     23 O2        -11.2015   -6.6567   -1.5536 O.3       1 <0>        -0.1496
     24 C17       -13.1927   -7.8484   -2.5105 C.ar      1 <0>        -0.0121
     25 C18       -14.3722   -8.5426   -2.2283 C.ar      1 <0>        -0.0850
     26 C19       -15.1573   -9.0099   -3.2609 C.ar      1 <0>        -0.1084
     27 C20       -14.7791   -8.7927   -4.5757 C.ar      1 <0>        -0.0307
     28 C21       -13.6109   -8.1057   -4.8623 C.ar      1 <0>        -0.1049
     29 C22       -12.8197   -7.6280   -3.8392 C.ar      1 <0>        -0.0852
     30 Cl1       -15.7733   -9.3844   -5.8699 Cl        1 <0>        -0.0690
     31 C23        -9.1560   -5.4344   -2.4859 C.1       1 <0>         0.2711
     32 N4         -9.4852   -5.6255   -3.5562 N.1       1 <0>        -0.4185
     33 F1          3.5396    2.1009   -0.0209 F         1 <0>        -0.1414
     34 H1         -0.9592    1.9052    0.0260 H         1 <0>         0.1381
     35 H2          1.1554    3.1659    0.0077 H         1 <0>         0.1369
     36 H3          3.3381   -0.5027   -0.0329 H         1 <0>         0.1369
     37 H4          1.2213   -1.7599   -0.0195 H         1 <0>         0.1381
     38 H5         -1.1453   -1.7280    0.5176 H         1 <0>         0.1030
     39 H6         -2.0553   -0.1984    0.5345 H         1 <0>         0.1031
     40 H7         -9.1987   -5.4757    0.9369 H         1 <0>         0.1855
     41 H8        -11.4486   -6.8075    1.6945 H         1 <0>         0.1644
     42 H9        -13.4534   -8.0010    0.3737 H         1 <0>         0.1569
     43 H10       -14.6680   -8.7130   -1.2037 H         1 <0>         0.1397
     44 H11       -16.0690   -9.5469   -3.0442 H         1 <0>         0.1397
     45 H12       -13.3216   -7.9399   -5.8896 H         1 <0>         0.1391
     46 H13       -11.9116   -7.0883   -4.0640 H         1 <0>         0.1433
@<TRIPOS>BOND
     1    1    6 ar
     2    1    2 ar
     3    1   34 1
     4    2    3 ar
     5    2   35 1
     6    3    4 ar
     7    3   33 1
     8    4    5 ar
     9    4   36 1
    10    5    6 ar
    11    5   37 1
    12    6    7 1
    13    7    8 1
    14    7   38 1
    15    7   39 1
    16    8    9 1
    17    9   13 1
    18    9   10 2
    19   10   11 1
    20   11   12 2
    21   12   13 1
    22   12   14 1
    23   14   15 2
    24   15   16 1
    25   15   17 1
    26   17   18 2
    27   17   31 1
    28   18   19 1
    29   18   40 1
    30   19   23 1
    31   19   20 2
    32   20   21 1
    33   20   41 1
    34   21   22 2
    35   21   42 1
    36   22   23 1
    37   22   24 1
    38   24   29 ar
    39   24   25 ar
    40   25   26 ar
    41   25   43 1
    42   26   27 ar
    43   26   44 1
    44   27   28 ar
    45   27   30 1
    46   28   29 ar
    47   28   45 1
    48   29   46 1
    49   31   32 3
@<TRIPOS>MOLECULE
ZINC59437124
   60    63     0     0     0
SMALL
USER_CHARGES

@<TRIPOS>ATOM
      1 C1         -0.0187    1.5258    0.0104 C.3       1 <0>        -0.1451
      2 C2          0.0021   -0.0041    0.0020 C.3       1 <0>        -0.0776
      3 C3         -1.4117   -0.5257    0.0127 C.ar      1 <0>        -0.1204
      4 C4         -2.0478   -0.7650    1.2217 C.ar      1 <0>        -0.0990
      5 C5         -3.3339   -1.2396    1.2435 C.ar      1 <0>        -0.1240
      6 C6         -4.0088   -1.4839    0.0324 C.ar      1 <0>         0.1319
      7 C7         -3.3532   -1.2373   -1.1888 C.ar      1 <0>        -0.1663
      8 C8         -2.0688   -0.7574   -1.1865 C.ar      1 <0>        -0.0919
      9 N1         -5.2704   -1.9498    0.0419 N.2       1 <0>        -0.4880
     10 C9         -6.1762   -1.4191   -0.7589 C.2       1 <0>         0.3048
     11 C10        -7.5978   -1.7687   -0.9034 C.2       1 <0>        -0.4188
     12 C11        -8.3184   -1.0523   -1.8172 C.2       1 <0>         0.3412
     13 O1         -9.6325   -1.3078   -2.0139 O.3       1 <0>        -0.5774
     14 C12        -7.6604   -0.0349   -2.5551 C.2       1 <0>        -0.1010
     15 C13        -8.1989    0.8178   -3.5365 C.2       1 <0>        -0.0262
     16 C14        -7.3921    1.7600   -4.1541 C.2       1 <0>         0.0388
     17 C15        -7.7993    2.6792   -5.1463 C.2       1 <0>        -0.1810
     18 C16        -6.7011    3.4199   -5.4792 C.2       1 <0>        -0.1588
     19 C17        -5.6334    2.9575   -4.6979 C.2       1 <0>        -0.0114
     20 O2         -6.0787    1.9644   -3.9084 O.3       1 <0>        -0.1158
     21 C18        -4.2632    3.4733   -4.7318 C.ar      1 <0>         0.0201
     22 C19        -3.5947    3.6251   -5.9566 C.ar      1 <0>        -0.0598
     23 C20        -2.3175    4.1064   -5.9815 C.ar      1 <0>        -0.0862
     24 C21        -1.6701    4.4490   -4.8022 C.ar      1 <0>         0.0340
     25 C22        -2.3078    4.3077   -3.5853 C.ar      1 <0>        -0.1451
     26 C23        -3.6075    3.8267   -3.5351 C.ar      1 <0>         0.1545
     27 O3         -4.2405    3.6923   -2.3441 O.3       1 <0>        -0.2806
     28 C24        -3.5109    4.0712   -1.1753 C.3       1 <0>         0.0188
     29 N2         -0.2853    4.9692   -4.8493 N.pl3     1 <0>        -0.0186
     30 O4          0.3279    5.1055   -6.0069 O.2       1 <0>        -0.1653
     31 O5          0.3338    5.2957   -3.7337 O.3       1 <0>        -0.1703
     32 S1         -5.9890   -0.0904   -1.9352 S.3       1 <0>        -0.0804
     33 C25        -8.2147   -2.8398   -0.1021 C.2       1 <0>         0.5383
     34 O6         -9.3920   -3.1043   -0.2452 O.2       1 <0>        -0.5273
     35 O7         -7.4734   -3.5263    0.7899 O.3       1 <0>        -0.3405
     36 C26        -8.1367   -4.5513    1.5325 C.3       1 <0>         0.0629
     37 C27        -7.1417   -5.2145    2.4871 C.3       1 <0>        -0.1439
     38 H1          1.0039    1.9031    0.0027 H         1 <0>         0.0545
     39 H2         -0.5459    1.8868   -0.8726 H         1 <0>         0.0507
     40 H3         -0.5289    1.8773    0.9072 H         1 <0>         0.0546
     41 H4          0.5123   -0.3556   -0.8948 H         1 <0>         0.0651
     42 H5          0.5293   -0.3651    0.8851 H         1 <0>         0.0668
     43 H6         -1.5279   -0.5771    2.1495 H         1 <0>         0.1169
     44 H7         -3.8273   -1.4255    2.1861 H         1 <0>         0.1229
     45 H8         -3.8615   -1.4213   -2.1238 H         1 <0>         0.1232
     46 H9         -1.5653   -0.5634   -2.1220 H         1 <0>         0.1118
     47 H10        -9.2411    0.7379   -3.8084 H         1 <0>         0.1742
     48 H11        -8.7909    2.7775   -5.5629 H         1 <0>         0.1594
     49 H12        -6.6625    4.2145   -6.2096 H         1 <0>         0.1543
     50 H13        -4.0905    3.3608   -6.8790 H         1 <0>         0.1625
     51 H14        -1.8066    4.2213   -6.9261 H         1 <0>         0.1615
     52 H15        -1.7960    4.5765   -2.6730 H         1 <0>         0.1637
     53 H16        -4.1314    3.9142   -0.2930 H         1 <0>         0.1122
     54 H17        -2.6087    3.4645   -1.0976 H         1 <0>         0.0642
     55 H18        -3.2362    5.1238   -1.2438 H         1 <0>         0.0607
     56 H19        -8.9538   -4.1136    2.1060 H         1 <0>         0.0533
     57 H20        -8.5343   -5.2983    0.8455 H         1 <0>         0.0532
     58 H21        -7.6476   -5.9963    3.0535 H         1 <0>         0.0665
     59 H22        -6.3246   -5.6522    1.9136 H         1 <0>         0.0617
     60 H23        -6.7441   -4.4675    3.1741 H         1 <0>         0.0618
@<TRIPOS>BOND
     1    1    2 1
     2    1   38 1
     3    1   39 1
     4    1   40 1
     5    2    3 1
     6    2   41 1
     7    2   42 1
     8    3    8 ar
     9    3    4 ar
    10    4    5 ar
    11    4   43 1
    12    5    6 ar
    13    5   44 1
    14    6    7 ar
    15    6    9 1
    16    7    8 ar
    17    7   45 1
    18    8   46 1
    19    9   10 2
    20   10   32 1
    21   10   11 1
    22   11   12 2
    23   11   33 1
    24   12   13 1
    25   12   14 1
    26   14   15 2
    27   14   32 1
    28   15   16 1
    29   15   47 1
    30   16   20 1
    31   16   17 2
    32   17   18 1
    33   17   48 1
    34   18   19 2
    35   18   49 1
    36   19   20 1
    37   19   21 1
    38   21   26 ar
    39   21   22 ar
    40   22   23 ar
    41   22   50 1
    42   23   24 ar
    43   23   51 1
    44   24   25 ar
    45   24   29 1
    46   25   26 ar
    47   25   52 1
    48   26   27 1
    49   27   28 1
    50   28   53 1
    51   28   54 1
    52   28   55 1
    53   29   30 2
    54   29   31 1
    55   33   34 2
    56   33   35 1
    57   35   36 1
    58   36   37 1
    59   36   56 1
    60   36   57 1
    61   37   58 1
    62   37   59 1
    63   37   60 1
@<TRIPOS>MOLECULE
ZINC08379510
   39    41     0     0     0
SMALL
USER_CHARGES
3-[5-(4-chlorophenyl)-1-(2-thienylcarbonylamino)pyrrol-2-yl]propanoic acid
@<TRIPOS>ATOM
      1 C1          0.3486    2.5628    2.5103 C.2       1 <0>        -0.1734
      2 C2         -0.9874    2.3344    2.7271 C.2       1 <0>        -0.0565
      3 C3         -1.7886    2.1649    1.6088 C.2       1 <0>        -0.2317
      4 S1         -0.6095    2.3473    0.2824 S.3       1 <0>         0.1313
      5 C4          0.8140    2.6162    1.2347 C.2       1 <0>        -0.1755
      6 C5         -3.2294    1.9055    1.5351 C.2       1 <0>         0.6018
      7 O1         -3.8840    1.8124    2.5569 O.2       1 <0>        -0.4676
      8 N1         -3.8292    1.7701    0.3358 N.am      1 <0>        -0.5275
      9 N2         -5.1896    1.4424    0.2660 N.pl3     1 <0>        -0.2379
     10 C6         -6.2219    2.2440    0.6537 C.2       1 <0>         0.0873
     11 C7         -7.3807    1.5860    0.4344 C.2       1 <0>        -0.1992
     12 C8         -7.0624    0.3305   -0.1087 C.2       1 <0>        -0.1414
     13 C9         -5.7053    0.2640   -0.2092 C.2       1 <0>         0.0224
     14 C10        -4.9265   -0.8780   -0.7344 C.ar      1 <0>         0.0122
     15 C11        -3.5577   -0.7427   -0.9710 C.ar      1 <0>        -0.1218
     16 C12        -2.8355   -1.8128   -1.4569 C.ar      1 <0>        -0.0982
     17 C13        -3.4679   -3.0164   -1.7194 C.ar      1 <0>        -0.0464
     18 C14        -4.8266   -3.1551   -1.4911 C.ar      1 <0>        -0.0992
     19 C15        -5.5583   -2.0935   -1.0009 C.ar      1 <0>        -0.0970
     20 Cl1        -2.5538   -4.3565   -2.3376 Cl        1 <0>        -0.0756
     21 C16        -6.0919    3.6305    1.2298 C.3       1 <0>        -0.0347
     22 C17        -6.2960    3.5744    2.7451 C.3       1 <0>        -0.1545
     23 C18        -6.2256    4.9684    3.3134 C.2       1 <0>         0.4624
     24 O2         -6.0320    5.9101    2.5815 O.co2     1 <0>        -0.6466
     25 H1          1.0221    2.6980    3.3437 H         1 <0>         0.1450
     26 H2         -1.3958    2.2845    3.7257 H         1 <0>         0.1537
     27 H3          1.8256    2.7850    0.8962 H         1 <0>         0.1929
     28 H4         -3.3191    1.8996   -0.4790 H         1 <0>         0.4192
     29 H5         -8.3736    1.9584    0.6395 H         1 <0>         0.1506
     30 H6         -7.7638   -0.4382   -0.3974 H         1 <0>         0.1480
     31 H7         -3.0643    0.1969   -0.7708 H         1 <0>         0.1236
     32 H8         -1.7755   -1.7106   -1.6365 H         1 <0>         0.1339
     33 H9         -5.3144   -4.0963   -1.6977 H         1 <0>         0.1362
     34 H10        -6.6181   -2.2027   -0.8239 H         1 <0>         0.1393
     35 H11        -5.0988    4.0231    1.0112 H         1 <0>         0.0615
     36 H12        -6.8455    4.2807    0.7855 H         1 <0>         0.0883
     37 H13        -7.2720    3.1414    2.9644 H         1 <0>         0.0652
     38 H14        -5.5163    2.9591    3.1942 H         1 <0>         0.0844
     39 O3         -6.3779    5.1638    4.6326 O.co2     1 <0>        -0.7743
@<TRIPOS>BOND
     1    1    5 2
     2    1    2 1
     3    1   25 1
     4    2    3 2
     5    2   26 1
     6    3    4 1
     7    3    6 1
     8    4    5 1
     9    5   27 1
    10    6    7 2
    11    6    8 am
    12    8    9 1
    13    8   28 1
    14    9   13 1
    15    9   10 1
    16   10   11 2
    17   10   21 1
    18   11   12 1
    19   11   29 1
    20   12   13 2
    21   12   30 1
    22   13   14 1
    23   14   19 ar
    24   14   15 ar
    25   15   16 ar
    26   15   31 1
    27   16   17 ar
    28   16   32 1
    29   17   18 ar
    30   17   20 1
    31   18   19 ar
    32   18   33 1
    33   19   34 1
    34   21   22 1
    35   21   35 1
    36   21   36 1
    37   22   23 1
    38   22   37 1
    39   22   38 1
    40   23   24 2
    41   23   39 1
@<TRIPOS>MOLECULE
ZINC24924492
   55    59     0     0     0
SMALL
USER_CHARGES
2-(3-propyl-5-thioxo-1H-1,2,4-triazol-4-yl)-N-(BLAHylmethyl)acetamide
@<TRIPOS>ATOM
      1 C1         -2.0999   -2.9074    1.7697 C.3       1 <0>        -0.1496
      2 C2         -1.5074   -1.5545    2.1693 C.3       1 <0>        -0.1193
      3 C3         -2.2886   -0.4327    1.4822 C.3       1 <0>        -0.0264
      4 C4         -1.7050    0.8998    1.8757 C.2       1 <0>         0.1797
      5 N1         -2.0702    1.6107    2.8936 N.2       1 <0>        -0.3303
      6 N2         -1.2897    2.7749    2.9152 N.2       1 <0>        -0.3862
      7 C5         -0.4449    2.7110    1.8649 C.2       1 <0>         0.3967
      8 S1          0.7295    3.8805    1.4361 S.3       1 <0>        -0.7857
      9 N3         -0.6984    1.5583    1.2133 N.pl3     1 <0>        -0.4879
     10 C6         -0.0127    1.0858    0.0080 C.3       1 <0>         0.0974
     11 C7         -0.7416    1.5850   -1.2129 C.2       1 <0>         0.5069
     12 O1         -1.7359    2.2682   -1.0884 O.2       1 <0>        -0.5166
     13 N4         -0.2884    1.2723   -2.4431 N.am      1 <0>        -0.7433
     14 C8         -0.9970    1.7576   -3.6299 C.3       1 <0>         0.1337
     15 C9         -0.2809    1.2642   -4.8887 C.3       1 <0>        -0.0851
     16 H1          0.7804    1.5524   -4.8639 H         1 <0>         0.0868
     17 C10        -0.3544   -0.2597   -4.9405 C.3       1 <0>        -0.1110
     18 C11        -1.0702   -0.7461   -6.2179 C.3       1 <0>        -0.0089
     19 C12        -0.3085   -0.1140   -7.3726 C.ar      1 <0>        -0.0764
     20 C13         0.2790   -0.8076   -8.3917 C.ar      1 <0>        -0.1085
     21 C14         0.9468   -0.1014   -9.3839 C.ar      1 <0>        -0.1221
     22 C15         1.0128    1.2788   -9.3378 C.ar      1 <0>        -0.1222
     23 C16         0.4128    1.9776   -8.2980 C.ar      1 <0>        -0.1050
     24 C17        -0.2420    1.2768   -7.3259 C.ar      1 <0>        -0.0762
     25 C18        -0.9443    1.9001   -6.1297 C.3       1 <0>        -0.0018
     26 C19        -2.3572    1.3387   -6.1635 C.ar      1 <0>        -0.0769
     27 C20        -2.4234   -0.0521   -6.2097 C.ar      1 <0>        -0.0796
     28 C21        -3.6287   -0.6933   -6.2429 C.ar      1 <0>        -0.1079
     29 C22        -4.7914    0.0666   -6.2301 C.ar      1 <0>        -0.1213
     30 C23        -4.7257    1.4467   -6.1841 C.ar      1 <0>        -0.1191
     31 C24        -3.4961    2.0921   -6.1508 C.ar      1 <0>        -0.1037
     32 H2         -1.5382   -3.7139    2.2637 H         1 <0>         0.0544
     33 H3         -2.0330   -3.0291    0.6785 H         1 <0>         0.0524
     34 H4         -3.1544   -2.9518    2.0796 H         1 <0>         0.0561
     35 H5         -1.5743   -1.4328    3.2605 H         1 <0>         0.0704
     36 H6         -0.4529   -1.5101    1.8594 H         1 <0>         0.0593
     37 H7         -2.2217   -0.5544    0.3910 H         1 <0>         0.0684
     38 H8         -3.3431   -0.4771    1.7921 H         1 <0>         0.0888
     39 H9          1.0193    1.4665    0.0002 H         1 <0>         0.1271
     40 H10         0.0022   -0.0141    0.0020 H         1 <0>         0.1033
     41 H11         0.6135    0.6527   -2.5560 H         1 <0>         0.4161
     42 H12        -2.0290    1.3768   -3.6220 H         1 <0>         0.0674
     43 H13        -1.0120    2.8575   -3.6238 H         1 <0>         0.0649
     44 H14         0.6636   -0.6764   -4.9308 H         1 <0>         0.0734
     45 H15        -0.9104   -0.6299   -4.0666 H         1 <0>         0.0783
     46 H16        -1.1453   -1.8407   -6.2970 H         1 <0>         0.1039
     47 H17         0.2251   -1.8857   -8.4258 H         1 <0>         0.1233
     48 H18         1.4173   -0.6339  -10.1972 H         1 <0>         0.1200
     49 H19         1.5347    1.8171  -10.1151 H         1 <0>         0.1206
     50 H20         0.4630    3.0557   -8.2593 H         1 <0>         0.1250
     51 H21        -0.9158    2.9997   -6.1363 H         1 <0>         0.1077
     52 H22        -3.6771   -1.7716   -6.2788 H         1 <0>         0.1227
     53 H23        -5.7531   -0.4241   -6.2559 H         1 <0>         0.1203
     54 H24        -5.6365    2.0271   -6.1744 H         1 <0>         0.1212
     55 H25        -3.4418    3.1701   -6.1152 H         1 <0>         0.1251
@<TRIPOS>BOND
     1    1    2 1
     2    1   32 1
     3    1   33 1
     4    1   34 1
     5    2    3 1
     6    2   35 1
     7    2   36 1
     8    3    4 1
     9    3   37 1
    10    3   38 1
    11    4    9 1
    12    4    5 2
    13    5    6 1
    14    6    7 2
    15    7    8 1
    16    7    9 1
    17    9   10 1
    18   10   11 1
    19   10   39 1
    20   10   40 1
    21   11   12 2
    22   11   13 am
    23   13   14 1
    24   13   41 1
    25   14   15 1
    26   14   42 1
    27   14   43 1
    28   15   16 1
    29   15   25 1
    30   15   17 1
    31   17   18 1
    32   17   44 1
    33   17   45 1
    34   18   27 1
    35   18   19 1
    36   18   46 1
    37   19   24 ar
    38   19   20 ar
    39   20   21 ar
    40   20   47 1
    41   21   22 ar
    42   21   48 1
    43   22   23 ar
    44   22   49 1
    45   23   24 ar
    46   23   50 1
    47   24   25 1
    48   25   26 1
    49   25   51 1
    50   26   31 ar
    51   26   27 ar
    52   27   28 ar
    53   28   29 ar
    54   28   52 1
    55   29   30 ar
    56   29   53 1
    57   30   31 ar
    58   30   54 1
    59   31   55 1
@<TRIPOS>MOLECULE
ZINC49102577
   41    41     0     0     0
SMALL
USER_CHARGES

@<TRIPOS>ATOM
      1 C1         -0.0184    1.5028    0.0103 C.3       1 <0>        -0.1161
      2 C2          0.0021   -0.0041    0.0020 C.ar      1 <0>        -0.0676
      3 C3          0.0057   -0.6888   -1.1973 C.ar      1 <0>        -0.0737
      4 C4          0.0244   -2.0721   -1.2058 C.ar      1 <0>        -0.1026
      5 C5          0.0391   -2.7743   -0.0132 C.ar      1 <0>        -0.0743
      6 C6          0.0355   -2.0957    1.1891 C.ar      1 <0>        -0.1283
      7 C7          0.0230   -0.7059    1.2010 C.ar      1 <0>        -0.0722
      8 S1          0.0258    0.1640    2.7333 S.3       1 <0>        -0.0482
      9 C8          0.0555   -1.1498    3.9837 C.3       1 <0>        -0.1237
     10 C9          0.0602   -0.5342    5.3592 C.2       1 <0>         0.3576
     11 O1          1.1814    0.0305    5.8388 O.3       1 <0>        -0.5941
     12 C10        -1.0729   -0.5500    6.1170 C.2       1 <0>        -0.4067
     13 C11        -2.2677   -1.1517    5.6059 C.1       1 <0>         0.2962
     14 N1         -3.2154   -1.6291    5.2005 N.1       1 <0>        -0.5315
     15 C12        -1.0683    0.0506    7.4588 C.2       1 <0>         0.5942
     16 O2         -0.0533    0.5618    7.8930 O.2       1 <0>        -0.5413
     17 N2         -2.1885    0.0349    8.2080 N.am      1 <0>        -0.7537
     18 C13        -2.1840    0.6334    9.5452 C.3       1 <0>         0.1317
     19 C14        -3.5694    0.4821   10.1764 C.3       1 <0>        -0.1305
     20 C15        -3.5646    1.1072   11.5729 C.3       1 <0>         0.0652
     21 O3         -4.8587    0.9659   12.1624 O.3       1 <0>        -0.3938
     22 C16        -4.9627    1.5198   13.4756 C.3       1 <0>         0.0321
     23 Br1         0.0294   -3.0056   -2.8503 Br        1 <0>        -0.0613
     24 H1          1.0042    1.8801    0.0026 H         1 <0>         0.0778
     25 H2         -0.5455    1.8639   -0.8728 H         1 <0>         0.0702
     26 H3         -0.5286    1.8543    0.9071 H         1 <0>         0.0775
     27 H4         -0.0064   -0.1437   -2.1297 H         1 <0>         0.1337
     28 H5          0.0530   -3.8541   -0.0231 H         1 <0>         0.1320
     29 H6          0.0470   -2.6441    2.1194 H         1 <0>         0.1323
     30 H7         -0.8272   -1.7793    3.8704 H         1 <0>         0.0899
     31 H8          0.9525   -1.7551    3.8535 H         1 <0>         0.0991
     32 H9         -2.9978   -0.3727    7.8618 H         1 <0>         0.3895
     33 H10        -1.4444    0.1285   10.1667 H         1 <0>         0.0602
     34 H11        -1.9330    1.6914    9.4688 H         1 <0>         0.0604
     35 H12        -4.3090    0.9870    9.5549 H         1 <0>         0.0750
     36 H13        -3.8204   -0.5758   10.2527 H         1 <0>         0.0748
     37 H14        -2.8251    0.6023   12.1944 H         1 <0>         0.0526
     38 H15        -3.3137    2.1652   11.4965 H         1 <0>         0.0527
     39 H16        -5.9745    1.3720   13.8531 H         1 <0>         0.0837
     40 H17        -4.2522    1.0234   14.1366 H         1 <0>         0.0405
     41 H18        -4.7408    2.5863   13.4387 H         1 <0>         0.0406
@<TRIPOS>BOND
     1    1    2 1
     2    1   24 1
     3    1   25 1
     4    1   26 1
     5    2    7 ar
     6    2    3 ar
     7    3    4 ar
     8    3   27 1
     9    4    5 ar
    10    4   23 1
    11    5    6 ar
    12    5   28 1
    13    6    7 ar
    14    6   29 1
    15    7    8 1
    16    8    9 1
    17    9   10 1
    18    9   30 1
    19    9   31 1
    20   10   11 1
    21   10   12 2
    22   12   13 1
    23   12   15 1
    24   13   14 3
    25   15   16 2
    26   15   17 am
    27   17   18 1
    28   17   32 1
    29   18   19 1
    30   18   33 1
    31   18   34 1
    32   19   20 1
    33   19   35 1
    34   19   36 1
    35   20   21 1
    36   20   37 1
    37   20   38 1
    38   21   22 1
    39   22   39 1
    40   22   40 1
    41   22   41 1
@<TRIPOS>MOLECULE
ZINC46125636
   48    50     0     0     0
SMALL
USER_CHARGES

@<TRIPOS>ATOM
      1 C1          1.1294   -0.1921   -1.3597 C.3       1 <0>        -0.1073
      2 C2          0.1411   -1.1397   -0.7302 C.ar      1 <0>        -0.1116
      3 C3         -1.0588   -1.4081   -1.3650 C.ar      1 <0>        -0.1160
      4 C4         -1.9711   -2.2767   -0.7935 C.ar      1 <0>        -0.1385
      5 C5         -1.6890   -2.8817    0.4143 C.ar      1 <0>        -0.0678
      6 C6         -0.4811   -2.6156    1.0589 C.ar      1 <0>        -0.0863
      7 C7          0.4369   -1.7423    0.4750 C.ar      1 <0>        -0.0805
      8 C8         -0.1722   -3.2615    2.3554 C.2       1 <0>         0.5086
      9 O1          0.8835   -3.0273    2.9162 O.2       1 <0>        -0.6221
     10 N1         -1.0536   -4.1031    2.9113 N.2       1 <0>        -0.6820
     11 C9         -0.7491   -4.7334    4.0356 C.2       1 <0>         0.6265
     12 N2          0.3366   -4.3421    4.7650 N.pl3     1 <0>        -0.7122
     13 C10         1.0826   -5.2905    5.4723 C.ar      1 <0>         0.2250
     14 C11         1.4190   -6.4984    4.8742 C.ar      1 <0>        -0.1326
     15 C12         2.1556   -7.4331    5.5747 C.ar      1 <0>        -0.0903
     16 C13         2.5587   -7.1684    6.8707 C.ar      1 <0>        -0.1529
     17 C14         2.2256   -5.9663    7.4699 C.ar      1 <0>        -0.0096
     18 C15         1.4933   -5.0243    6.7717 C.ar      1 <0>        -0.1301
     19 C16         1.1363   -3.7125    7.4219 C.3       1 <0>        -0.1053
     20 Cl1         2.7332   -5.6383    9.0973 Cl        1 <0>        -0.0846
     21 N3         -1.5202   -5.7734    4.4648 N.2       1 <0>        -0.6800
     22 C17        -1.6827   -6.0215    5.8995 C.3       1 <0>         0.1343
     23 C18        -2.6851   -7.1274    6.1076 C.ar      1 <0>         0.1831
     24 C19        -2.2441   -8.4272    6.2716 C.ar      1 <0>        -0.1650
     25 C20        -3.1743   -9.4371    6.4624 C.ar      1 <0>        -0.0803
     26 C21        -4.5194   -9.1005    6.4813 C.ar      1 <0>        -0.1957
     27 C22        -4.8853   -7.7790    6.3105 C.ar      1 <0>         0.0957
     28 N4         -3.9723   -6.8433    6.1366 N.ar      1 <0>        -0.4738
     29 H1          1.8027   -0.7493   -2.0111 H         1 <0>         0.0644
     30 H2          0.5938    0.5555   -1.9448 H         1 <0>         0.0609
     31 H3          1.7064    0.3028   -0.5786 H         1 <0>         0.0628
     32 H4         -1.2841   -0.9371   -2.3104 H         1 <0>         0.1142
     33 H5         -2.9062   -2.4817   -1.2934 H         1 <0>         0.1186
     34 H6         -2.4022   -3.5594    0.8597 H         1 <0>         0.1404
     35 H7          1.3755   -1.5352    0.9676 H         1 <0>         0.1246
     36 H8          0.5907   -3.4064    4.7927 H         1 <0>         0.4019
     37 H9          1.1044   -6.7063    3.8622 H         1 <0>         0.1250
     38 H10         2.4168   -8.3723    5.1099 H         1 <0>         0.1252
     39 H11         3.1344   -7.9013    7.4164 H         1 <0>         0.1241
     40 H12         0.1814   -3.8109    7.9382 H         1 <0>         0.0684
     41 H13         1.9106   -3.4398    8.1390 H         1 <0>         0.0670
     42 H14         1.0586   -2.9380    6.6589 H         1 <0>         0.0635
     43 H15        -0.7244   -6.3143    6.3284 H         1 <0>         0.0324
     44 H16        -2.0370   -5.1135    6.3874 H         1 <0>         0.0338
     45 H17        -1.1881   -8.6531    6.2509 H         1 <0>         0.1266
     46 H18        -2.8590  -10.4618    6.5929 H         1 <0>         0.1255
     47 H19        -5.2716   -9.8616    6.6273 H         1 <0>         0.1251
     48 H20        -5.9308   -7.5086    6.3239 H         1 <0>         0.1470
@<TRIPOS>BOND
     1    1    2 1
     2    1   29 1
     3    1   30 1
     4    1   31 1
     5    2    7 ar
     6    2    3 ar
     7    3    4 ar
     8    3   32 1
     9    4    5 ar
    10    4   33 1
    11    5    6 ar
    12    5   34 1
    13    6    7 ar
    14    6    8 1
    15    7   35 1
    16    8   10 1
    17    8    9 2
    18   10   11 2
    19   11   12 1
    20   11   21 1
    21   12   13 1
    22   12   36 1
    23   13   18 ar
    24   13   14 ar
    25   14   15 ar
    26   14   37 1
    27   15   16 ar
    28   15   38 1
    29   16   17 ar
    30   16   39 1
    31   17   18 ar
    32   17   20 1
    33   18   19 1
    34   19   40 1
    35   19   41 1
    36   19   42 1
    37   21   22 1
    38   22   23 1
    39   22   43 1
    40   22   44 1
    41   23   28 ar
    42   23   24 ar
    43   24   25 ar
    44   24   45 1
    45   25   26 ar
    46   25   46 1
    47   26   27 ar
    48   26   47 1
    49   27   28 ar
    50   27   48 1
@<TRIPOS>MOLECULE
ZINC39930496
   47    49     0     0     0
SMALL
USER_CHARGES

@<TRIPOS>ATOM
      1 C1          4.7765   -3.6716   -0.0724 C.3       1 <0>        -0.0771
      2 C2          4.4751   -2.4568    0.7668 C.2       1 <0>         0.1207
      3 C3          5.0155   -1.2479    0.4808 C.2       1 <0>        -0.2852
      4 S1          4.3092   -0.2503    1.7822 S.3       1 <0>         0.0109
      5 C4          3.4148   -1.4569    2.5416 C.2       1 <0>         0.2806
      6 S2          2.3837   -1.3245    3.9643 S.3       1 <0>        -0.7433
      7 N1          3.6680   -2.5225    1.8107 N.2       1 <0>        -0.5754
      8 C5          5.9546   -0.8537   -0.6298 C.3       1 <0>        -0.0118
      9 C6          5.1565   -0.4228   -1.8333 C.2       1 <0>         0.5062
     10 O1          3.9444   -0.4346   -1.7931 O.2       1 <0>        -0.4731
     11 N2          5.7897   -0.0242   -2.9544 N.am      1 <0>        -0.6190
     12 C7          5.0539    0.3731   -4.0640 C.2       1 <0>         0.2586
     13 N3          5.4990    0.7824   -5.2300 N.2       1 <0>        -0.5614
     14 C8          4.6562    1.1316   -6.2029 C.2       1 <0>         0.1813
     15 C9          3.3207    1.0383   -5.9148 C.2       1 <0>        -0.3048
     16 S3          3.3816    0.4370   -4.2352 S.3       1 <0>         0.2128
     17 C10         5.1375    1.5947   -7.5204 C.2       1 <0>        -0.2199
     18 C11         6.4059    1.8103   -7.8468 C.2       1 <0>         0.1959
     19 N4          6.5767    2.2397   -9.1469 N.pl3     1 <0>        -0.6220
     20 C12         5.2662    2.3345   -9.8060 C.3       1 <0>         0.1407
     21 H1          5.0692    3.3601  -10.1179 H         1 <0>         0.0727
     22 C13         4.2661    1.8943   -8.7198 C.3       1 <0>        -0.0649
     23 C14         5.2008    1.3887  -11.0069 C.3       1 <0>        -0.1584
     24 C15         7.8637    2.5528   -9.7728 C.3       1 <0>         0.1671
     25 C16         8.4238    1.3114  -10.4179 C.2       1 <0>        -0.1693
     26 C17         8.7510    1.3230  -11.6863 C.2       1 <0>        -0.1833
     27 C18         7.5507    1.6059   -6.8884 C.3       1 <0>        -0.1399
     28 H2          4.0480   -3.7452   -0.8799 H         1 <0>         0.0661
     29 H3          5.7779   -3.5830   -0.4935 H         1 <0>         0.0612
     30 H4          4.7214   -4.5654    0.5491 H         1 <0>         0.0676
     31 H5          6.5847   -0.0287   -0.2973 H         1 <0>         0.1061
     32 H6          6.5812   -1.7052   -0.8953 H         1 <0>         0.1113
     33 H7          6.7592   -0.0148   -2.9865 H         1 <0>         0.4214
     34 H8          2.4654    1.2629   -6.5348 H         1 <0>         0.1862
     35 H9          3.7272    1.0003   -9.0336 H         1 <0>         0.0746
     36 H10         3.5698    2.7020   -8.4940 H         1 <0>         0.0728
     37 H11         5.3547    0.3634  -10.6707 H         1 <0>         0.0595
     38 H12         4.2236    1.4724  -11.4824 H         1 <0>         0.0644
     39 H13         5.9776    1.6567  -11.7231 H         1 <0>         0.0565
     40 H14         7.7212    3.3233  -10.5306 H         1 <0>         0.0771
     41 H15         8.5585    2.9132   -9.0143 H         1 <0>         0.0825
     42 H16         8.5556    0.4121   -9.8344 H         1 <0>         0.1087
     43 H17         9.1524    0.4333  -12.1486 H         1 <0>         0.0979
     44 H18         8.6193    2.2222  -12.2698 H         1 <0>         0.0961
     45 H19         7.1749    1.1763   -5.9598 H         1 <0>         0.1312
     46 H20         8.2803    0.9289   -7.3328 H         1 <0>         0.0591
     47 H21         8.0251    2.5648   -6.6793 H         1 <0>         0.0611
@<TRIPOS>BOND
     1    1    2 1
     2    1   28 1
     3    1   29 1
     4    1   30 1
     5    2    7 1
     6    2    3 2
     7    3    4 1
     8    3    8 1
     9    4    5 1
    10    5    6 1
    11    5    7 2
    12    8    9 1
    13    8   31 1
    14    8   32 1
    15    9   10 2
    16    9   11 am
    17   11   12 1
    18   11   33 1
    19   12   16 1
    20   12   13 2
    21   13   14 1
    22   14   15 2
    23   14   17 1
    24   15   16 1
    25   15   34 1
    26   17   22 1
    27   17   18 2
    28   18   19 1
    29   18   27 1
    30   19   20 1
    31   19   24 1
    32   20   21 1
    33   20   22 1
    34   20   23 1
    35   22   35 1
    36   22   36 1
    37   23   37 1
    38   23   38 1
    39   23   39 1
    40   24   25 1
    41   24   40 1
    42   24   41 1
    43   25   26 2
    44   25   42 1
    45   26   43 1
    46   26   44 1
    47   27   45 1
    48   27   46 1
    49   27   47 1
@<TRIPOS>MOLECULE
ZINC13022690
   46    47     0     0     0
SMALL
USER_CHARGES
2-[2-[[(1R)-1-(4-bromophenyl)propyl]amino]-2-oxo-ethyl]sulfanyl-4,6-dimethyl-pyridine-3-carboxylic acid
@<TRIPOS>ATOM
      1 C1         -1.9427   -0.0274    7.3207 C.3       1 <0>        -0.1487
      2 C2         -2.6569    1.0199    8.1773 C.3       1 <0>        -0.1265
      3 C3         -2.2132    2.4195    7.7469 C.3       1 <0>         0.1842
      4 H1         -1.1263    2.4868    7.7946 H         1 <0>         0.1025
      5 C4         -2.8208    3.4449    8.6691 C.ar      1 <0>        -0.0717
      6 C5         -4.1307    3.8476    8.4874 C.ar      1 <0>        -0.1080
      7 C6         -4.6899    4.7845    9.3359 C.ar      1 <0>        -0.0859
      8 C7         -3.9354    5.3269   10.3606 C.ar      1 <0>        -0.0915
      9 C8         -2.6231    4.9275   10.5388 C.ar      1 <0>        -0.0862
     10 C9         -2.0663    3.9866    9.6930 C.ar      1 <0>        -0.1003
     11 Br1        -4.6975    6.6144   11.5170 Br        1 <0>        -0.0524
     12 N1         -2.6584    2.6724    6.3743 N.am      1 <0>        -0.7252
     13 C10        -1.9083    2.2557    5.3350 C.2       1 <0>         0.5336
     14 O1         -0.8648    1.6714    5.5360 O.2       1 <0>        -0.5081
     15 C11        -2.3664    2.5159    3.9231 C.3       1 <0>        -0.1575
     16 S1         -1.1537    1.8407    2.7613 S.3       1 <0>         0.0506
     17 C12        -1.9191    2.2732    1.2343 C.ar      1 <0>         0.1093
     18 C13        -1.2994    1.9299    0.0187 C.ar      1 <0>        -0.1171
     19 C14        -1.9246    2.2897   -1.1812 C.ar      1 <0>        -0.0164
     20 C15        -3.1332    2.9600   -1.1175 C.ar      1 <0>        -0.1816
     21 C16        -3.6809    3.2629    0.1167 C.ar      1 <0>         0.1180
     22 N2         -3.0751    2.9204    1.2364 N.ar      1 <0>        -0.4997
     23 C17        -4.9950    3.9978    0.1820 C.3       1 <0>        -0.0923
     24 C18        -1.2989    1.9508   -2.5096 C.3       1 <0>        -0.1138
     25 C19        -0.0144    1.2111    0.0087 C.2       1 <0>         0.5011
     26 O2          0.0021   -0.0041    0.0020 O.co2     1 <0>        -0.6173
     27 H2         -2.2588   -1.0245    7.6273 H         1 <0>         0.0486
     28 H3         -2.1955    0.1273    6.2717 H         1 <0>         0.0603
     29 H4         -0.8650    0.0687    7.4527 H         1 <0>         0.0631
     30 H5         -2.4041    0.8651    9.2262 H         1 <0>         0.0717
     31 H6         -3.7346    0.9238    8.0453 H         1 <0>         0.0647
     32 H7         -4.7184    3.4271    7.6848 H         1 <0>         0.1319
     33 H8         -5.7144    5.0963    9.1962 H         1 <0>         0.1344
     34 H9         -2.0335    5.3509   11.3385 H         1 <0>         0.1349
     35 H10        -1.0417    3.6750    9.8319 H         1 <0>         0.1361
     36 H11        -3.4931    3.1398    6.2136 H         1 <0>         0.4000
     37 H12        -2.4627    3.5900    3.7644 H         1 <0>         0.1165
     38 H13        -3.3317    2.0366    3.7601 H         1 <0>         0.1159
     39 H14        -3.6434    3.2488   -2.0246 H         1 <0>         0.1293
     40 H15        -4.8101    5.0718    0.2007 H         1 <0>         0.0714
     41 H16        -5.5951    3.7476   -0.6928 H         1 <0>         0.0699
     42 H17        -5.5302    3.7055    1.0854 H         1 <0>         0.0699
     43 H18        -1.6497    0.9722   -2.8374 H         1 <0>         0.0742
     44 H19        -1.5803    2.7032   -3.2463 H         1 <0>         0.0658
     45 H20        -0.2140    1.9318   -2.4059 H         1 <0>         0.0813
     46 O3          1.1435    1.9008    0.0013 O.co2     1 <0>        -0.7392
@<TRIPOS>BOND
     1    1    2 1
     2    1   27 1
     3    1   28 1
     4    1   29 1
     5    2    3 1
     6    2   30 1
     7    2   31 1
     8    3    4 1
     9    3    5 1
    10    3   12 1
    11    5   10 ar
    12    5    6 ar
    13    6    7 ar
    14    6   32 1
    15    7    8 ar
    16    7   33 1
    17    8    9 ar
    18    8   11 1
    19    9   10 ar
    20    9   34 1
    21   10   35 1
    22   12   13 am
    23   12   36 1
    24   13   14 2
    25   13   15 1
    26   15   16 1
    27   15   37 1
    28   15   38 1
    29   16   17 1
    30   17   22 ar
    31   17   18 ar
    32   18   19 ar
    33   18   25 1
    34   19   20 ar
    35   19   24 1
    36   20   21 ar
    37   20   39 1
    38   21   22 ar
    39   21   23 1
    40   23   40 1
    41   23   41 1
    42   23   42 1
    43   24   43 1
    44   24   44 1
    45   24   45 1
    46   25   26 2
    47   25   46 1
@<TRIPOS>MOLECULE
ZINC23138692
   48    50     0     0     0
SMALL
USER_CHARGES

@<TRIPOS>ATOM
      1 C1         -0.0184    1.5028    0.0103 C.3       1 <0>        -0.1114
      2 C2          0.0021   -0.0041    0.0020 C.2       1 <0>         0.2048
      3 C3         -1.1715   -0.7013    0.0038 C.2       1 <0>        -0.2486
      4 C4         -1.1276   -2.1065   -0.0045 C.2       1 <0>         0.5420
      5 O1         -2.1575   -2.7607   -0.0036 O.2       1 <0>        -0.5303
      6 N1          0.0760   -2.7182   -0.0140 N.am      1 <0>        -0.6140
      7 H1          0.1298   -3.6867   -0.0202 H         1 <0>         0.4209
      8 C5          1.2143   -1.9705   -0.0153 C.2       1 <0>         0.3738
      9 N2          1.1639   -0.6523   -0.0126 N.2       1 <0>        -0.5372
     10 S1          2.7806   -2.7774   -0.0271 S.3       1 <0>        -0.0039
     11 C6          3.9768   -1.4137   -0.0253 C.3       1 <0>        -0.0179
     12 H2          3.7693   -0.7473   -0.8625 H         1 <0>         0.1156
     13 C7          3.8610   -0.6354    1.2869 C.3       1 <0>        -0.1480
     14 C8          5.3715   -1.9687   -0.1587 C.ar      1 <0>        -0.0813
     15 C9          5.8591   -2.8481    0.7899 C.ar      1 <0>        -0.1031
     16 C10         7.1385   -3.3572    0.6675 C.ar      1 <0>        -0.1173
     17 C11         7.9300   -2.9873   -0.4037 C.ar      1 <0>        -0.1098
     18 C12         7.4421   -2.1086   -1.3528 C.ar      1 <0>        -0.1175
     19 C13         6.1612   -1.6028   -1.2327 C.ar      1 <0>        -0.0974
     20 C14        -2.4928    0.0234    0.0150 C.3       1 <0>        -0.0716
     21 C15        -3.0000    0.1651   -1.3970 C.2       1 <0>         0.5209
     22 O2         -2.3524   -0.2788   -2.3214 O.2       1 <0>        -0.5306
     23 N3         -4.1733    0.7850   -1.6326 N.am      1 <0>        -0.7302
     24 C16        -4.6664    0.9227   -3.0052 C.3       1 <0>         0.2078
     25 C17        -5.9876    1.6474   -2.9940 C.2       1 <0>        -0.1744
     26 C18        -6.2323    2.9777   -3.0820 C.2       1 <0>        -0.1319
     27 C19        -7.5408    3.4221   -3.0511 C.2       1 <0>        -0.1637
     28 C20        -8.5407    2.5145   -2.9338 C.2       1 <0>        -0.1633
     29 S2         -7.6372    0.9760   -2.8694 S.3       1 <0>         0.0532
     30 H3          1.0042    1.8801    0.0026 H         1 <0>         0.0839
     31 H4         -0.5455    1.8639   -0.8728 H         1 <0>         0.0850
     32 H5         -0.5286    1.8543    0.9071 H         1 <0>         0.0878
     33 H6          2.8522   -0.2340    1.3834 H         1 <0>         0.0825
     34 H7          4.0685   -1.3018    2.1241 H         1 <0>         0.0653
     35 H8          4.5798    0.1840    1.2880 H         1 <0>         0.0728
     36 H9          5.2407   -3.1371    1.6268 H         1 <0>         0.1271
     37 H10         7.5197   -4.0437    1.4090 H         1 <0>         0.1265
     38 H11         8.9298   -3.3845   -0.4990 H         1 <0>         0.1253
     39 H12         8.0606   -1.8193   -2.1895 H         1 <0>         0.1270
     40 H13         5.7786   -0.9192   -1.9762 H         1 <0>         0.1264
     41 H14        -3.2132   -0.5435    0.6047 H         1 <0>         0.1097
     42 H15        -2.3612    1.0121    0.4546 H         1 <0>         0.1076
     43 H16        -4.6913    1.1400   -0.8933 H         1 <0>         0.4037
     44 H17        -3.9460    1.4896   -3.5949 H         1 <0>         0.0909
     45 H18        -4.7980   -0.0660   -3.4449 H         1 <0>         0.0829
     46 H19        -5.4170    3.6800   -3.1745 H         1 <0>         0.1355
     47 H20        -7.7631    4.4768   -3.1191 H         1 <0>         0.1365
     48 H21        -9.6073    2.6790   -2.8937 H         1 <0>         0.1878
@<TRIPOS>BOND
     1    1    2 1
     2    1   30 1
     3    1   31 1
     4    1   32 1
     5    2    9 1
     6    2    3 2
     7    3    4 1
     8    3   20 1
     9    4    5 2
    10    4    6 am
    11    6    7 1
    12    6    8 1
    13    8    9 2
    14    8   10 1
    15   10   11 1
    16   11   12 1
    17   11   13 1
    18   11   14 1
    19   13   33 1
    20   13   34 1
    21   13   35 1
    22   14   19 ar
    23   14   15 ar
    24   15   16 ar
    25   15   36 1
    26   16   17 ar
    27   16   37 1
    28   17   18 ar
    29   17   38 1
    30   18   19 ar
    31   18   39 1
    32   19   40 1
    33   20   21 1
    34   20   41 1
    35   20   42 1
    36   21   22 2
    37   21   23 am
    38   23   24 1
    39   23   43 1
    40   24   25 1
    41   24   44 1
    42   24   45 1
    43   25   29 1
    44   25   26 2
    45   26   27 1
    46   26   46 1
    47   27   28 2
    48   27   47 1
    49   28   29 1
    50   28   48 1
@<TRIPOS>MOLECULE
ZINC50948568
   38    39     0     0     0
SMALL
USER_CHARGES

@<TRIPOS>ATOM
      1 C1          0.5086    1.2063   -0.0666 C.3       1 <0>        -0.1173
      2 C2          0.3850   -0.2948   -0.0148 C.ar      1 <0>        -0.0717
      3 C3          0.3911   -1.0297   -1.1840 C.ar      1 <0>        -0.1045
      4 C4          0.2783   -2.4071   -1.1374 C.ar      1 <0>        -0.1332
      5 C5          0.1585   -3.0539    0.0795 C.ar      1 <0>        -0.1061
      6 C6          0.1512   -2.3256    1.2524 C.ar      1 <0>        -0.1333
      7 C7          0.2706   -0.9415    1.2098 C.ar      1 <0>        -0.0858
      8 S1          0.2691   -0.0085    2.7045 S.3       1 <0>        -0.0552
      9 C8          0.1021   -1.2626    4.0045 C.3       1 <0>        -0.1174
     10 C9          0.0872   -0.5896    5.3528 C.2       1 <0>         0.3486
     11 O1          1.2281   -0.1110    5.8775 O.3       1 <0>        -0.6411
     12 C10        -1.0836   -0.4663    6.0402 C.2       1 <0>        -0.4199
     13 C11        -1.1184    0.2675    7.2694 C.1       1 <0>         0.3307
     14 N1         -1.1460    0.8497    8.2445 N.1       1 <0>        -0.5281
     15 C12        -2.3104   -1.0867    5.5196 C.2       1 <0>         0.6129
     16 O2         -3.0922   -0.4283    4.8596 O.2       1 <0>        -0.5198
     17 N2         -2.5691   -2.3848    5.7734 N.am      1 <0>        -0.6732
     18 C13        -3.7851   -2.9481    5.3693 C.ar      1 <0>         0.1707
     19 C14        -3.8678   -4.3095    5.1077 C.ar      1 <0>        -0.1282
     20 C15        -5.0684   -4.8640    4.7095 C.ar      1 <0>        -0.1178
     21 C16        -6.1897   -4.0637    4.5705 C.ar      1 <0>         0.0732
     22 C17        -6.1099   -2.7051    4.8309 C.ar      1 <0>        -0.0474
     23 C18        -4.9114   -2.1475    5.2352 C.ar      1 <0>        -0.1008
     24 Cl1        -7.5173   -1.7039    4.6558 Cl        1 <0>        -0.0517
     25 F1         -7.3629   -4.6080    4.1800 F         1 <0>        -0.1333
     26 H1          1.5614    1.4858   -0.0270 H         1 <0>         0.0736
     27 H2          0.0693    1.5752   -0.9934 H         1 <0>         0.0672
     28 H3         -0.0156    1.6435    0.7832 H         1 <0>         0.0750
     29 H4          0.4838   -0.5281   -2.1359 H         1 <0>         0.1227
     30 H5          0.2833   -2.9793   -2.0533 H         1 <0>         0.1195
     31 H6          0.0702   -4.1297    0.1121 H         1 <0>         0.1205
     32 H7          0.0572   -2.8312    2.2021 H         1 <0>         0.1211
     33 H8         -0.8287   -1.8117    3.8622 H         1 <0>         0.0855
     34 H9          0.9433   -1.9538    3.9527 H         1 <0>         0.0973
     35 H10        -1.9126   -2.9287    6.2361 H         1 <0>         0.4153
     36 H11        -2.9935   -4.9344    5.2152 H         1 <0>         0.1417
     37 H12        -5.1326   -5.9227    4.5060 H         1 <0>         0.1451
     38 H13        -4.8501   -1.0893    5.4422 H         1 <0>         0.1653
@<TRIPOS>BOND
     1    1    2 1
     2    1   26 1
     3    1   27 1
     4    1   28 1
     5    2    7 ar
     6    2    3 ar
     7    3    4 ar
     8    3   29 1
     9    4    5 ar
    10    4   30 1
    11    5    6 ar
    12    5   31 1
    13    6    7 ar
    14    6   32 1
    15    7    8 1
    16    8    9 1
    17    9   10 1
    18    9   33 1
    19    9   34 1
    20   10   11 1
    21   10   12 2
    22   12   13 1
    23   12   15 1
    24   13   14 3
    25   15   16 2
    26   15   17 am
    27   17   18 1
    28   17   35 1
    29   18   23 ar
    30   18   19 ar
    31   19   20 ar
    32   19   36 1
    33   20   21 ar
    34   20   37 1
    35   21   22 ar
    36   21   25 1
    37   22   23 ar
    38   22   24 1
    39   23   38 1
@<TRIPOS>MOLECULE
ZINC45940158
   45    47     0     0     0
SMALL
USER_CHARGES

@<TRIPOS>ATOM
      1 C1          1.9345    0.8469    0.2990 C.3       1 <0>        -0.1094
      2 C2          0.9384   -0.2708    0.1277 C.ar      1 <0>        -0.0443
      3 C3          0.7523   -0.8471   -1.1123 C.ar      1 <0>        -0.1449
      4 C4         -0.1621   -1.8728   -1.2712 C.ar      1 <0>        -0.1094
      5 C5         -0.8955   -2.3275   -0.1894 C.ar      1 <0>        -0.1500
      6 C6         -0.7184   -1.7595    1.0552 C.ar      1 <0>        -0.0583
      7 C7          0.2067   -0.7288    1.2232 C.ar      1 <0>        -0.0986
      8 C8          0.4064   -0.1191    2.5581 C.2       1 <0>         0.5105
      9 O1          1.2362    0.7600    2.7083 O.2       1 <0>        -0.6112
     10 N1         -0.3255   -0.5343    3.6003 N.2       1 <0>        -0.6789
     11 C9         -0.2176    0.0765    4.7706 C.2       1 <0>         0.6303
     12 N2          0.5197    1.2204    4.8781 N.pl3     1 <0>        -0.7049
     13 C10         1.1813    1.5163    6.0748 C.ar      1 <0>         0.2325
     14 C11         1.6323    0.4887    6.8929 C.ar      1 <0>        -0.1431
     15 C12         2.2855    0.7838    8.0734 C.ar      1 <0>        -0.0613
     16 C13         2.4907    2.1017    8.4413 C.ar      1 <0>        -0.1408
     17 C14         2.0424    3.1275    7.6282 C.ar      1 <0>        -0.0586
     18 C15         1.3933    2.8383    6.4440 C.ar      1 <0>        -0.1816
     19 Br1         3.3849    2.5017   10.0588 Br        1 <0>        -0.0771
     20 N3         -0.8431   -0.4375    5.8684 N.2       1 <0>        -0.6998
     21 C16        -1.4802    0.4597    6.8355 C.3       1 <0>         0.1281
     22 C17        -2.2155   -0.3552    7.8681 C.ar      1 <0>         0.0113
     23 C18        -3.5412   -0.7134    7.6772 C.ar      1 <0>        -0.1602
     24 C19        -4.1830   -1.4613    8.6461 C.ar      1 <0>         0.0876
     25 N4         -3.5492   -1.8329    9.7412 N.ar      1 <0>        -0.5009
     26 C20        -2.2888   -1.5105    9.9562 C.ar      1 <0>         0.0878
     27 C21        -1.5806   -0.7695    9.0290 C.ar      1 <0>        -0.1608
     28 H1          2.8599    0.4483    0.7149 H         1 <0>         0.0661
     29 H2          2.1385    1.3035   -0.6695 H         1 <0>         0.0430
     30 H3          1.5258    1.5974    0.9756 H         1 <0>         0.0942
     31 H4          1.3214   -0.4963   -1.9604 H         1 <0>         0.1168
     32 H5         -0.3045   -2.3204   -2.2437 H         1 <0>         0.1152
     33 H6         -1.6081   -3.1284   -0.3199 H         1 <0>         0.1184
     34 H7         -1.2919   -2.1147    1.8986 H         1 <0>         0.1403
     35 H8          0.5848    1.8280    4.1248 H         1 <0>         0.4029
     36 H9          1.4721   -0.5402    6.6064 H         1 <0>         0.1366
     37 H10         2.6361   -0.0150    8.7102 H         1 <0>         0.1250
     38 H11         2.2036    4.1554    7.9179 H         1 <0>         0.1244
     39 H12         1.0476    3.6394    5.8074 H         1 <0>         0.1229
     40 H13        -0.7182    1.0655    7.3260 H         1 <0>         0.0261
     41 H14        -2.1844    1.1110    6.3178 H         1 <0>         0.0263
     42 H15        -4.0659   -0.4114    6.7828 H         1 <0>         0.1275
     43 H16        -5.2157   -1.7443    8.5050 H         1 <0>         0.1474
     44 H17        -1.8030   -1.8327   10.8654 H         1 <0>         0.1471
     45 H18        -0.5470   -0.5128    9.2085 H         1 <0>         0.1260
@<TRIPOS>BOND
     1    1    2 1
     2    1   28 1
     3    1   29 1
     4    1   30 1
     5    2    7 ar
     6    2    3 ar
     7    3    4 ar
     8    3   31 1
     9    4    5 ar
    10    4   32 1
    11    5    6 ar
    12    5   33 1
    13    6    7 ar
    14    6   34 1
    15    7    8 1
    16    8   10 1
    17    8    9 2
    18   10   11 2
    19   11   12 1
    20   11   20 1
    21   12   13 1
    22   12   35 1
    23   13   18 ar
    24   13   14 ar
    25   14   15 ar
    26   14   36 1
    27   15   16 ar
    28   15   37 1
    29   16   17 ar
    30   16   19 1
    31   17   18 ar
    32   17   38 1
    33   18   39 1
    34   20   21 1
    35   21   22 1
    36   21   40 1
    37   21   41 1
    38   22   27 ar
    39   22   23 ar
    40   23   24 ar
    41   23   42 1
    42   24   25 ar
    43   24   43 1
    44   25   26 ar
    45   26   27 ar
    46   26   44 1
    47   27   45 1
@<TRIPOS>MOLECULE
ZINC08579865
   39    40     0     0     0
SMALL
USER_CHARGES

@<TRIPOS>ATOM
      1 C1         -0.1547    1.3089   -1.9190 C.3       1 <0>         0.0801
      2 N1         -0.0919   -0.1545   -1.9496 N.pl3     1 <0>        -1.0061
      3 C2         -0.5456   -0.9315   -0.7935 C.3       1 <0>         0.0915
      4 S1          0.4920   -0.9303   -3.2911 S.o2      1 <0>         2.6889
      5 O1         -0.0650   -2.2375   -3.2789 O.2       1 <0>        -0.9377
      6 O2          0.3186   -0.0384   -4.3837 O.2       1 <0>        -0.9522
      7 C3          2.2293   -1.1211   -3.0676 C.ar      1 <0>        -0.6686
      8 C4          3.0946   -0.1354   -3.5064 C.ar      1 <0>        -0.0133
      9 C5          4.4585   -0.2813   -3.3330 C.ar      1 <0>        -0.1303
     10 C6          4.9613   -1.4127   -2.7206 C.ar      1 <0>        -0.0655
     11 C7          4.0952   -2.4041   -2.2785 C.ar      1 <0>         0.1015
     12 C8          2.7251   -2.2520   -2.4495 C.ar      1 <0>         0.0259
     13 N2          4.6011   -3.5511   -1.6579 N.pl3     1 <0>        -0.6240
     14 C9          4.0746   -4.7588   -1.9421 C.2       1 <0>         0.5366
     15 S2          2.8898   -4.9090   -3.1687 S.2       1 <0>        -0.5521
     16 N3          4.4809   -5.8483   -1.2606 N.pl3     1 <0>        -0.6238
     17 C10         4.0243   -7.1168   -1.6332 C.ar      1 <0>         0.1492
     18 C11         3.9274   -7.4543   -2.9768 C.ar      1 <0>        -0.0623
     19 C12         3.4763   -8.7088   -3.3423 C.ar      1 <0>        -0.0146
     20 C13         3.1214   -9.6280   -2.3707 C.ar      1 <0>        -0.0936
     21 C14         3.2169   -9.2942   -1.0311 C.ar      1 <0>        -0.0180
     22 C15         3.6724   -8.0430   -0.6601 C.ar      1 <0>        -0.1097
     23 Cl1         2.7701  -10.4501    0.1846 Cl        1 <0>        -0.0474
     24 Cl2         3.3544   -9.1313   -5.0217 Cl        1 <0>        -0.0428
     25 H1          0.7782    1.7043   -1.5173 H         1 <0>         0.0562
     26 H2         -0.3043    1.6873   -2.9302 H         1 <0>         0.0851
     27 H3         -0.9849    1.6237   -1.2867 H         1 <0>         0.0795
     28 H4         -1.6066   -1.1567   -0.9008 H         1 <0>         0.0638
     29 H5          0.0194   -1.8619   -0.7367 H         1 <0>         0.0706
     30 H6         -0.3870   -0.3540    0.1173 H         1 <0>         0.0745
     31 H7          2.7041    0.7501   -3.9858 H         1 <0>         0.1442
     32 H8          5.1316    0.4901   -3.6770 H         1 <0>         0.1413
     33 H9          6.0268   -1.5264   -2.5861 H         1 <0>         0.1349
     34 H10         2.0486   -3.0193   -2.1031 H         1 <0>         0.1595
     35 H11         5.3307   -3.4773   -1.0231 H         1 <0>         0.4117
     36 H12         5.0900   -5.7527   -0.5118 H         1 <0>         0.4133
     37 H13         4.2040   -6.7372   -3.7355 H         1 <0>         0.1611
     38 H14         2.7688  -10.6074   -2.6583 H         1 <0>         0.1492
     39 H15         3.7511   -7.7845    0.3856 H         1 <0>         0.1435
@<TRIPOS>BOND
     1    1    2 1
     2    1   25 1
     3    1   26 1
     4    1   27 1
     5    2    3 1
     6    2    4 1
     7    3   28 1
     8    3   29 1
     9    3   30 1
    10    4    5 2
    11    4    6 2
    12    4    7 1
    13    7   12 ar
    14    7    8 ar
    15    8    9 ar
    16    8   31 1
    17    9   10 ar
    18    9   32 1
    19   10   11 ar
    20   10   33 1
    21   11   12 ar
    22   11   13 1
    23   12   34 1
    24   13   14 1
    25   13   35 1
    26   14   15 2
    27   14   16 1
    28   16   17 1
    29   16   36 1
    30   17   22 ar
    31   17   18 ar
    32   18   19 ar
    33   18   37 1
    34   19   20 ar
    35   19   24 1
    36   20   21 ar
    37   20   38 1
    38   21   22 ar
    39   21   23 1
    40   22   39 1
@<TRIPOS>MOLECULE
ZINC04020934
   45    48     0     0     0
SMALL
USER_CHARGES
2-(1-adamantyl)-2-(3,5-dichlorobenzoyl)amino-acetic acid
@<TRIPOS>ATOM
      1 C1          3.1126   -4.7633   -4.9172 C.ar      1 <0>        -0.0502
      2 C2          3.0094   -4.0707   -3.7100 C.ar      1 <0>        -0.0882
      3 C3          2.9310   -4.7790   -2.5100 C.ar      1 <0>        -0.0747
      4 C4          2.9448   -6.1598   -2.5245 C.ar      1 <0>        -0.0300
      5 C5          3.0469   -6.8413   -3.7252 C.ar      1 <0>        -0.0874
      6 C6          3.1308   -6.1441   -4.9184 C.ar      1 <0>        -0.0310
      7 Cl1         3.2585   -7.0074   -6.4191 Cl        1 <0>        -0.0543
      8 Cl2         2.8407   -7.0427   -1.0334 Cl        1 <0>        -0.0551
      9 C7          2.9894   -2.5923   -3.7019 C.2       1 <0>         0.5578
     10 O1          3.0628   -1.9778   -4.7480 O.2       1 <0>        -0.5314
     11 N1          2.8896   -1.9262   -2.5345 N.am      1 <0>        -0.6872
     12 C8          2.8697   -0.4613   -2.5264 C.3       1 <0>         0.1081
     13 H1          2.3426   -0.1002   -3.4095 H         1 <0>         0.0887
     14 C9          4.2835    0.0603   -2.5371 C.2       1 <0>         0.4651
     15 O2          5.2124   -0.7123   -2.5502 O.co2     1 <0>        -0.6285
     16 C10         2.1536    0.0321   -1.2676 C.3       1 <0>        -0.0367
     17 C11         0.7182   -0.4975   -1.2568 C.3       1 <0>        -0.1027
     18 C12         0.0021   -0.0041    0.0020 C.3       1 <0>        -0.0831
     19 C13        -0.0187    1.5258    0.0104 C.3       1 <0>        -0.1062
     20 C14         1.4167    2.0553   -0.0004 C.3       1 <0>        -0.0856
     21 C15         2.1328    1.5619   -1.2592 C.3       1 <0>        -0.1144
     22 C16         2.1567    1.5485    1.2391 C.3       1 <0>        -0.1050
     23 C17         2.1775    0.0187    1.2307 C.3       1 <0>        -0.0835
     24 C18         0.7421   -0.5109    1.2415 C.3       1 <0>        -0.1048
     25 C19         2.8936   -0.4747   -0.0281 C.3       1 <0>        -0.1007
     26 H2          3.1778   -4.2205   -5.8486 H         1 <0>         0.1544
     27 H3          2.8554   -4.2484   -1.5724 H         1 <0>         0.1426
     28 H4          3.0615   -7.9212   -3.7312 H         1 <0>         0.1468
     29 H5          2.8310   -2.4166   -1.6997 H         1 <0>         0.3907
     30 H6          0.7330   -1.5874   -1.2628 H         1 <0>         0.0548
     31 H7          0.1910   -0.1364   -2.1398 H         1 <0>         0.0594
     32 H8         -1.0205   -0.3814    0.0098 H         1 <0>         0.0622
     33 H9         -0.5459    1.8868   -0.8726 H         1 <0>         0.0577
     34 H10        -0.5289    1.8773    0.9072 H         1 <0>         0.0534
     35 H11         1.4019    3.1452    0.0056 H         1 <0>         0.0645
     36 H12         1.6057    1.9230   -2.1423 H         1 <0>         0.0520
     37 H13         3.1554    1.9392   -1.2670 H         1 <0>         0.1197
     38 H14         1.6465    1.9000    2.1359 H         1 <0>         0.0530
     39 H15         3.1793    1.9258    1.2314 H         1 <0>         0.0636
     40 H16         2.7046   -0.3424    2.1137 H         1 <0>         0.0641
     41 H17         0.2319   -0.1594    2.1383 H         1 <0>         0.0564
     42 H18         0.7568   -1.6008    1.2356 H         1 <0>         0.0568
     43 H19         3.9162   -0.0975   -0.0359 H         1 <0>         0.0733
     44 H20         2.9084   -1.5646   -0.0341 H         1 <0>         0.0483
     45 O3          4.5109    1.3832   -2.5322 O.co2     1 <0>        -0.7528
@<TRIPOS>BOND
     1    1    6 ar
     2    1    2 ar
     3    1   26 1
     4    2    3 ar
     5    2    9 1
     6    3    4 ar
     7    3   27 1
     8    4    5 ar
     9    4    8 1
    10    5    6 ar
    11    5   28 1
    12    6    7 1
    13    9   10 2
    14    9   11 am
    15   11   12 1
    16   11   29 1
    17   12   13 1
    18   12   14 1
    19   12   16 1
    20   14   15 2
    21   14   45 1
    22   16   21 1
    23   16   25 1
    24   16   17 1
    25   17   18 1
    26   17   30 1
    27   17   31 1
    28   18   24 1
    29   18   19 1
    30   18   32 1
    31   19   20 1
    32   19   33 1
    33   19   34 1
    34   20   21 1
    35   20   22 1
    36   20   35 1
    37   21   36 1
    38   21   37 1
    39   22   23 1
    40   22   38 1
    41   22   39 1
    42   23   24 1
    43   23   25 1
    44   23   40 1
    45   24   41 1
    46   24   42 1
    47   25   43 1
    48   25   44 1
@<TRIPOS>MOLECULE
ZINC02789478
   25    26     0     0     0
SMALL
USER_CHARGES

@<TRIPOS>ATOM
      1 C1         -0.0168    1.3841    0.0097 C.ar      1 <0>        -0.1200
      2 C2          1.1679    2.0974    0.0022 C.ar      1 <0>        -0.0826
      3 C3          2.3781    1.4337   -0.0134 C.ar      1 <0>        -0.0642
      4 C4          2.4070    0.0360   -0.0211 C.ar      1 <0>        -0.0171
      5 C5          1.2095   -0.6813   -0.0130 C.ar      1 <0>        -0.1015
      6 C6          0.0021   -0.0041    0.0020 C.ar      1 <0>         0.1126
      7 O1         -1.1661   -0.6990    0.0094 O.3       1 <0>        -0.4946
      8 C7          3.6975   -0.6777   -0.0382 C.2       1 <0>         0.1568
      9 N1          4.8089   -0.0085   -0.0461 N.2       1 <0>        -0.1891
     10 N2          6.0348   -0.6865   -0.0623 N.pl3     1 <0>        -0.3510
     11 C8          6.7679   -1.0979    1.0195 C.2       1 <0>         0.0173
     12 N3          7.8371   -1.6868    0.5618 N.2       1 <0>        -0.2209
     13 N4          7.8324   -1.6773   -0.7232 N.2       1 <0>        -0.3223
     14 C9          6.7474   -1.0816   -1.1625 C.2       1 <0>         0.3955
     15 S1          6.2963   -0.8346   -2.8478 S.3       1 <0>        -0.7628
     16 C10         6.4058   -0.9049    2.4696 C.3       1 <0>         0.5732
     17 F1          7.5309   -1.1416    3.2667 F         1 <0>        -0.1566
     18 F2          5.9608    0.4064    2.6686 F         1 <0>        -0.1657
     19 F3          5.3895   -1.8005    2.8196 F         1 <0>        -0.1762
     20 Br1         3.9952    2.4139   -0.0248 Br        1 <0>         0.0148
     21 H1         -0.9605    1.9091    0.0260 H         1 <0>         0.1405
     22 H2          1.1461    3.1772    0.0081 H         1 <0>         0.1426
     23 H3          1.2248   -1.7612   -0.0193 H         1 <0>         0.1454
     24 H4         -1.5125   -0.8953   -0.8718 H         1 <0>         0.3947
     25 H5          3.7173   -1.7575   -0.0441 H         1 <0>         0.1310
@<TRIPOS>BOND
     1    1    6 ar
     2    1    2 ar
     3    1   21 1
     4    2    3 ar
     5    2   22 1
     6    3    4 ar
     7    3   20 1
     8    4    5 ar
     9    4    8 1
    10    5    6 ar
    11    5   23 1
    12    6    7 1
    13    7   24 1
    14    8    9 2
    15    8   25 1
    16    9   10 1
    17   10   14 1
    18   10   11 1
    19   11   12 2
    20   11   16 1
    21   12   13 1
    22   13   14 2
    23   14   15 1
    24   16   17 1
    25   16   18 1
    26   16   19 1
@<TRIPOS>MOLECULE
ZINC40123354
   40    42     0     0     0
SMALL
USER_CHARGES

@<TRIPOS>ATOM
      1 C1          2.0393    1.5687   -1.4063 C.3       1 <0>        -0.1004
      2 C2          2.0911    0.0626   -1.4040 C.ar      1 <0>        -0.1343
      3 C3          1.0551   -0.6617   -1.9496 C.ar      1 <0>        -0.0364
      4 C4          1.1043   -2.0589   -1.9470 C.ar      1 <0>        -0.1693
      5 C5          2.2064   -2.7149   -1.3896 C.ar      1 <0>        -0.0320
      6 C6          3.2378   -1.9832   -0.8463 C.ar      1 <0>        -0.2209
      7 C7          3.1876   -0.5934   -0.8560 C.ar      1 <0>         0.1377
      8 O1          4.2091    0.1243   -0.3243 O.3       1 <0>        -0.3152
      9 C8          5.3046   -0.6130    0.2219 C.3       1 <0>         0.0268
     10 C9         -0.0044   -2.8396   -2.5304 C.2       1 <0>         0.5076
     11 O2         -0.9941   -2.2700   -2.9513 O.2       1 <0>        -0.4751
     12 C10         0.0868   -4.3013   -2.6028 C.2       1 <0>        -0.5049
     13 C11         0.1793   -5.0495   -3.7266 C.2       1 <0>         0.2620
     14 C12         0.2497   -6.4781   -3.3544 C.2       1 <0>         0.5121
     15 O3          0.3385   -7.4000   -4.1408 O.2       1 <0>        -0.5375
     16 N1          0.2010   -6.6069   -2.0160 N.am      1 <0>        -0.7255
     17 C13         0.1021   -5.2620   -1.4368 C.3       1 <0>         0.2603
     18 H1          0.9624   -5.0624   -0.7979 H         1 <0>         0.0750
     19 C14        -1.1733   -5.1353   -0.6441 C.ar      1 <0>        -0.0648
     20 C15        -2.3051   -5.8222   -1.0419 C.ar      1 <0>        -0.0865
     21 C16        -3.4752   -5.7063   -0.3153 C.ar      1 <0>        -0.1095
     22 C17        -3.5135   -4.9026    0.8102 C.ar      1 <0>        -0.0429
     23 C18        -2.3804   -4.2154    1.2078 C.ar      1 <0>        -0.1097
     24 C19        -1.2094   -4.3365    0.4836 C.ar      1 <0>        -0.1033
     25 Cl1        -4.9829   -4.7561    1.7230 Cl        1 <0>        -0.0858
     26 O4          0.2036   -4.5665   -4.9902 O.3       1 <0>        -0.6529
     27 H2          2.4931    1.9465   -2.3225 H         1 <0>         0.0650
     28 H3          1.0011    1.8966   -1.3531 H         1 <0>         0.0641
     29 H4          2.5861    1.9524   -0.5450 H         1 <0>         0.0663
     30 H5          0.2056   -0.1513   -2.3787 H         1 <0>         0.1362
     31 H6          2.2481   -3.7941   -1.3853 H         1 <0>         0.1365
     32 H7          4.0894   -2.4890   -0.4156 H         1 <0>         0.1282
     33 H8          6.0500    0.0797    0.6126 H         1 <0>         0.0965
     34 H9          4.9459   -1.2533    1.0278 H         1 <0>         0.0550
     35 H10         5.7536   -1.2279   -0.5582 H         1 <0>         0.0557
     36 H11         0.2299   -7.4408   -1.5214 H         1 <0>         0.4069
     37 H12        -2.2752   -6.4492   -1.9207 H         1 <0>         0.1283
     38 H13        -4.3595   -6.2427   -0.6263 H         1 <0>         0.1286
     39 H14        -2.4098   -3.5877    2.0861 H         1 <0>         0.1287
     40 H15        -0.3236   -3.8039    0.7966 H         1 <0>         0.1295
@<TRIPOS>BOND
     1    1    2 1
     2    1   27 1
     3    1   28 1
     4    1   29 1
     5    2    7 ar
     6    2    3 ar
     7    3    4 ar
     8    3   30 1
     9    4    5 ar
    10    4   10 1
    11    5    6 ar
    12    5   31 1
    13    6    7 ar
    14    6   32 1
    15    7    8 1
    16    8    9 1
    17    9   33 1
    18    9   34 1
    19    9   35 1
    20   10   11 2
    21   10   12 1
    22   12   17 1
    23   12   13 2
    24   13   14 1
    25   13   26 1
    26   14   15 2
    27   14   16 am
    28   16   17 1
    29   16   36 1
    30   17   18 1
    31   17   19 1
    32   19   24 ar
    33   19   20 ar
    34   20   21 ar
    35   20   37 1
    36   21   22 ar
    37   21   38 1
    38   22   23 ar
    39   22   25 1
    40   23   24 ar
    41   23   39 1
    42   24   40 1
@<TRIPOS>MOLECULE
ZINC52538488
   34    36     0     0     0
SMALL
USER_CHARGES

@<TRIPOS>ATOM
      1 C1         -0.3768    1.5559    0.7345 C.3       1 <0>         0.0286
      2 O1         -0.2679    0.1488    0.5102 O.3       1 <0>        -0.3314
      3 C2         -1.4060   -0.5703    0.5713 C.2       1 <0>         0.4695
      4 O2         -2.4614   -0.0179    0.8085 O.2       1 <0>        -0.4996
      5 C3         -1.3700   -2.0305    0.3499 C.2       1 <0>         0.3129
      6 O3         -0.1813   -2.6653    0.2102 O.3       1 <0>        -0.5848
      7 C4         -2.5248   -2.7343    0.2865 C.2       1 <0>        -0.4103
      8 C5         -2.5313   -4.2094    0.2251 C.2       1 <0>         0.4304
      9 N1         -3.5699   -4.8014   -0.3607 N.2       1 <0>        -0.5618
     10 C6         -4.5814   -4.0958   -0.8609 C.2       1 <0>         0.5599
     11 S1         -5.7372   -4.9113   -1.8253 S.2       1 <0>        -0.6803
     12 N2         -4.7456   -2.7820   -0.6511 N.pl3     1 <0>        -0.6767
     13 C7         -3.8762   -2.0475    0.2814 C.3       1 <0>         0.2497
     14 H1         -3.7647   -1.0159   -0.0524 H         1 <0>         0.1236
     15 C8         -4.4679   -2.0753    1.6671 C.2       1 <0>        -0.1220
     16 C9         -4.3954   -0.9621    2.4833 C.2       1 <0>        -0.1293
     17 C10        -4.9377   -1.0204    3.7242 C.2       1 <0>        -0.1893
     18 S2         -5.5778   -2.6864    3.7696 S.3       1 <0>         0.0067
     19 C11        -5.0842   -3.1905    2.1296 C.2       1 <0>        -0.1539
     20 C12        -1.4312   -4.9954    0.7894 C.2       1 <0>        -0.1588
     21 C13        -0.9899   -6.2650    0.4354 C.2       1 <0>        -0.0944
     22 C14         0.0770   -6.7461    1.1537 C.2       1 <0>        -0.1873
     23 C15         0.6152   -5.9750    2.1327 C.2       1 <0>        -0.2712
     24 S3         -0.3047   -4.5696    2.1039 S.3       1 <0>         0.2934
     25 H2          0.6095    2.0135    0.6571 H         1 <0>         0.0971
     26 H3         -1.0396    1.9927   -0.0124 H         1 <0>         0.0571
     27 H4         -0.7831    1.7348    1.7300 H         1 <0>         0.0577
     28 H5         -3.9136   -0.0595    2.1376 H         1 <0>         0.1522
     29 H6         -4.9731   -0.2572    4.4875 H         1 <0>         0.1805
     30 H7         -5.2361   -4.1384    1.6349 H         1 <0>         0.1749
     31 H8         -1.4562   -6.8364   -0.3535 H         1 <0>         0.1426
     32 H9          0.4821   -7.7248    0.9428 H         1 <0>         0.1251
     33 H10         1.4479   -6.2095    2.7791 H         1 <0>         0.1781
     34 H11        -5.4507   -2.3088   -1.1199 H         1 <0>         0.4109
@<TRIPOS>BOND
     1    1    2 1
     2    1   25 1
     3    1   26 1
     4    1   27 1
     5    2    3 1
     6    3    4 2
     7    3    5 1
     8    5    6 1
     9    5    7 2
    10    7   13 1
    11    7    8 1
    12    8    9 2
    13    8   20 1
    14    9   10 1
    15   10   11 2
    16   10   12 1
    17   12   13 1
    18   12   34 1
    19   13   14 1
    20   13   15 1
    21   15   19 2
    22   15   16 1
    23   16   17 2
    24   16   28 1
    25   17   18 1
    26   17   29 1
    27   18   19 1
    28   19   30 1
    29   20   24 1
    30   20   21 2
    31   21   22 1
    32   21   31 1
    33   22   23 2
    34   22   32 1
    35   23   24 1
    36   23   33 1
@<TRIPOS>MOLECULE
ZINC57785579
   33    34     0     0     0
SMALL
USER_CHARGES

@<TRIPOS>ATOM
      1 C1          0.0306    1.5236   -2.0577 C.3       1 <0>        -0.1687
      2 C2         -0.0937    0.0219   -2.0797 C.2       1 <0>         0.4991
      3 O1         -0.7228   -0.5217   -2.9629 O.2       1 <0>        -0.5339
      4 N1          0.4941   -0.7171   -1.1180 N.am      1 <0>        -0.6594
      5 C3          0.2988   -2.1044   -1.0827 C.ar      1 <0>         0.0298
      6 C4          0.2175   -2.7631    0.1370 C.ar      1 <0>        -0.0752
      7 C5          0.0256   -4.1300    0.1726 C.ar      1 <0>        -0.2420
      8 C6         -0.0862   -4.8466   -1.0116 C.ar      1 <0>         0.2836
      9 C7         -0.0054   -4.1877   -2.2324 C.ar      1 <0>        -0.0786
     10 C8          0.1810   -2.8191   -2.2672 C.ar      1 <0>        -0.0599
     11 Cl1        -0.1450   -5.0829   -3.7132 Cl        1 <0>        -0.0828
     12 N2         -0.2798   -6.2324   -0.9755 N.2       1 <0>        -1.0641
     13 S1         -0.4997   -7.0003    0.4751 S.o2      1 <0>         2.6008
     14 O2          0.7148   -6.8569    1.1987 O.2       1 <0>        -1.0236
     15 O3         -1.7481   -6.5535    0.9860 O.2       1 <0>        -1.0139
     16 C9         -0.6819   -8.7190    0.1324 C.ar      1 <0>        -0.6546
     17 C10         0.2624   -9.6188    0.5899 C.ar      1 <0>         0.0100
     18 C11         0.1203  -10.9671    0.3216 C.ar      1 <0>        -0.1489
     19 C12        -0.9677  -11.4179   -0.4050 C.ar      1 <0>         0.0293
     20 C13        -1.9136  -10.5191   -0.8631 C.ar      1 <0>        -0.1752
     21 C14        -1.7738   -9.1688   -0.5902 C.ar      1 <0>         0.2189
     22 F1         -2.6996   -8.2903   -1.0331 F         1 <0>        -0.1048
     23 Cl2        -1.1449  -13.1116   -0.7420 Cl        1 <0>        -0.0591
     24 H1         -0.7927    1.9480   -1.4830 H         1 <0>         0.0914
     25 H2          0.9778    1.8031   -1.5963 H         1 <0>         0.0773
     26 H3         -0.0034    1.9060   -3.0779 H         1 <0>         0.0906
     27 H4          1.0523   -0.2887   -0.4503 H         1 <0>         0.4026
     28 H5          0.3048   -2.2062    1.0582 H         1 <0>         0.1124
     29 H6         -0.0372   -4.6419    1.1215 H         1 <0>         0.1106
     30 H7          0.2395   -2.3059   -3.2156 H         1 <0>         0.1345
     31 H8          1.1119   -9.2680    1.1571 H         1 <0>         0.1585
     32 H9          0.8590  -11.6692    0.6789 H         1 <0>         0.1449
     33 H10        -2.7629  -10.8705   -1.4302 H         1 <0>         0.1505
@<TRIPOS>BOND
     1    1    2 1
     2    1   24 1
     3    1   25 1
     4    1   26 1
     5    2    3 2
     6    2    4 am
     7    4    5 1
     8    4   27 1
     9    5   10 ar
    10    5    6 ar
    11    6    7 ar
    12    6   28 1
    13    7    8 ar
    14    7   29 1
    15    8    9 ar
    16    8   12 1
    17    9   10 ar
    18    9   11 1
    19   10   30 1
    20   12   13 1
    21   13   14 2
    22   13   15 2
    23   13   16 1
    24   16   21 ar
    25   16   17 ar
    26   17   18 ar
    27   17   31 1
    28   18   19 ar
    29   18   32 1
    30   19   20 ar
    31   19   23 1
    32   20   21 ar
    33   20   33 1
    34   21   22 1
@<TRIPOS>MOLECULE
ZINC66584277
   30    31     0     0     0
SMALL
USER_CHARGES

@<TRIPOS>ATOM
      1 C1         -0.0167    1.3788    0.0096 C.ar      1 <0>        -0.1175
      2 C2          1.1670    2.0882    0.0021 C.ar      1 <0>        -0.0838
      3 C3          2.3849    1.4077   -0.0132 C.ar      1 <0>        -0.0619
      4 C4          2.3979    0.0124   -0.0208 C.ar      1 <0>        -0.0709
      5 C5          1.2071   -0.6858   -0.0132 C.ar      1 <0>        -0.0922
      6 C6          0.0021   -0.0041    0.0020 C.ar      1 <0>        -0.0874
      7 Br1         1.2216   -2.5767   -0.0241 Br        1 <0>        -0.0509
      8 C7          3.6563    2.1618   -0.0218 C.2       1 <0>        -0.0008
      9 C8          4.8119    1.5125   -0.0363 C.2       1 <0>        -0.6619
     10 S1          6.3274    2.4113   -0.0465 S.o2      1 <0>         2.5979
     11 O1          7.1236    1.8531   -1.0827 O.2       1 <0>        -1.0265
     12 O2          5.9825    3.7893   -0.0091 O.2       1 <0>        -1.0295
     13 N1          7.1035    2.0788    1.3781 N.2       1 <0>        -1.0571
     14 C9          8.3477    2.6612    1.6501 C.2       1 <0>         0.2030
     15 C10         8.9266    3.5103    0.7476 C.2       1 <0>        -0.2923
     16 C11        10.1731    4.0804    1.0452 C.2       1 <0>        -0.1214
     17 C12        10.7892    3.7891    2.2131 C.2       1 <0>        -0.0217
     18 N2         10.2156    2.9447    3.1119 N.am      1 <0>        -0.6086
     19 C13         9.0170    2.3836    2.8623 C.2       1 <0>         0.5260
     20 O3          8.5118    1.6319    3.6809 O.2       1 <0>        -0.5477
     21 H1         -0.9598    1.9048    0.0260 H         1 <0>         0.1352
     22 H2          1.1507    3.1681    0.0077 H         1 <0>         0.1370
     23 H3          3.3375   -0.5201   -0.0330 H         1 <0>         0.1401
     24 H4         -0.9271   -0.5545    0.0083 H         1 <0>         0.1331
     25 H5          3.6436    3.2417   -0.0162 H         1 <0>         0.1455
     26 H6          4.8245    0.4326   -0.0419 H         1 <0>         0.1509
     27 H7          8.4298    3.7388   -0.1837 H         1 <0>         0.1029
     28 H8         10.6412    4.7521    0.3409 H         1 <0>         0.1204
     29 H9         11.7488    4.2322    2.4347 H         1 <0>         0.1395
     30 H10        10.6731    2.7476    3.9442 H         1 <0>         0.4008
@<TRIPOS>BOND
     1    1    6 ar
     2    1    2 ar
     3    1   21 1
     4    2    3 ar
     5    2   22 1
     6    3    4 ar
     7    3    8 1
     8    4    5 ar
     9    4   23 1
    10    5    6 ar
    11    5    7 1
    12    6   24 1
    13    8    9 2
    14    8   25 1
    15    9   10 1
    16    9   26 1
    17   10   11 2
    18   10   12 2
    19   10   13 1
    20   13   14 1
    21   14   19 1
    22   14   15 2
    23   15   16 1
    24   15   27 1
    25   16   17 2
    26   16   28 1
    27   17   18 1
    28   17   29 1
    29   18   19 am
    30   18   30 1
    31   19   20 2
@<TRIPOS>MOLECULE
ZINC01251107
   42    45     0     0     0
SMALL
USER_CHARGES

@<TRIPOS>ATOM
      1 C1          0.0555    1.3941   -0.0054 C.ar      1 <0>        -0.1200
      2 C2          1.2532    2.0846   -0.0212 C.ar      1 <0>        -0.1108
      3 C3          2.4495    1.3931   -0.0395 C.ar      1 <0>        -0.1154
      4 C4          2.4486    0.0094   -0.0414 C.ar      1 <0>        -0.0194
      5 C5          1.2499   -0.6809   -0.0251 C.ar      1 <0>        -0.0815
      6 C6          0.0539    0.0119   -0.0074 C.ar      1 <0>        -0.0914
      7 C7          1.2480   -2.1879   -0.0277 C.3       1 <0>         0.1614
      8 N1          1.5071   -2.6789    1.3280 N.am      1 <0>        -0.7349
      9 C8          1.5517   -4.0045    1.5675 C.2       1 <0>         0.5982
     10 O1          1.2863   -4.7926    0.6791 O.2       1 <0>        -0.5598
     11 C9          1.9201   -4.4972    2.8993 C.2       1 <0>        -0.4916
     12 C10         2.1030   -3.5872    3.9766 C.2       1 <0>         0.4302
     13 C11         2.4796   -4.1443    5.2894 C.ar      1 <0>        -0.1904
     14 C12         2.6757   -3.3011    6.3838 C.ar      1 <0>        -0.0374
     15 C13         3.0288   -3.8339    7.6030 C.ar      1 <0>        -0.1797
     16 C14         3.1895   -5.2043    7.7404 C.ar      1 <0>        -0.0712
     17 C15         2.9982   -6.0483    6.6671 C.ar      1 <0>        -0.1548
     18 C16         2.6377   -5.5347    5.4253 C.ar      1 <0>         0.2249
     19 N2          2.4319   -6.3603    4.3359 N.pl3     1 <0>        -0.5224
     20 C17         2.0884   -5.8582    3.1223 C.2       1 <0>         0.5176
     21 O2          1.9090   -6.7108    2.0948 O.3       1 <0>        -0.6295
     22 C18         2.5690   -7.8166    4.4641 C.3       1 <0>         0.1071
     23 C19         3.6247   -8.1461    5.5203 C.3       1 <0>        -0.1341
     24 C20         3.1869   -7.5330    6.8549 C.3       1 <0>        -0.0714
     25 O3          1.9539   -2.3875    3.8203 O.2       1 <0>        -0.5583
     26 Cl1         3.9510   -0.8600   -0.0649 Cl        1 <0>        -0.0588
     27 H1         -0.8792    1.9350    0.0131 H         1 <0>         0.1269
     28 H2          1.2539    3.1646   -0.0197 H         1 <0>         0.1283
     29 H3          3.3851    1.9326   -0.0525 H         1 <0>         0.1310
     30 H4         -0.8821   -0.5269    0.0050 H         1 <0>         0.1323
     31 H5          0.2768   -2.5494   -0.3657 H         1 <0>         0.0650
     32 H6          2.0250   -2.5510   -0.7004 H         1 <0>         0.0678
     33 H7          1.6465   -2.0500    2.0532 H         1 <0>         0.4093
     34 H8          2.5513   -2.2338    6.2746 H         1 <0>         0.1301
     35 H9          3.1803   -3.1846    8.4526 H         1 <0>         0.1193
     36 H10         3.4683   -5.6154    8.6994 H         1 <0>         0.1192
     37 H11         1.6122   -8.2458    4.7617 H         1 <0>         0.0645
     38 H12         2.8716   -8.2379    3.5054 H         1 <0>         0.0987
     39 H13         3.7119   -9.2275    5.6257 H         1 <0>         0.0819
     40 H14         4.5851   -7.7262    5.2213 H         1 <0>         0.0705
     41 H15         3.9546   -7.7115    7.6078 H         1 <0>         0.0749
     42 H16         2.2471   -7.9834    7.1743 H         1 <0>         0.0731
@<TRIPOS>BOND
     1    1    6 ar
     2    1    2 ar
     3    1   27 1
     4    2    3 ar
     5    2   28 1
     6    3    4 ar
     7    3   29 1
     8    4    5 ar
     9    4   26 1
    10    5    6 ar
    11    5    7 1
    12    6   30 1
    13    7    8 1
    14    7   31 1
    15    7   32 1
    16    8    9 am
    17    8   33 1
    18    9   10 2
    19    9   11 1
    20   11   20 2
    21   11   12 1
    22   12   13 1
    23   12   25 2
    24   13   18 ar
    25   13   14 ar
    26   14   15 ar
    27   14   34 1
    28   15   16 ar
    29   15   35 1
    30   16   17 ar
    31   16   36 1
    32   17   24 1
    33   17   18 ar
    34   18   19 1
    35   19   20 1
    36   19   22 1
    37   20   21 1
    38   22   23 1
    39   22   37 1
    40   22   38 1
    41   23   24 1
    42   23   39 1
    43   23   40 1
    44   24   41 1
    45   24   42 1
@<TRIPOS>MOLECULE
ZINC41606408
   33    35     0     0     0
SMALL
USER_CHARGES

@<TRIPOS>ATOM
      1 C1          0.0648    1.2444   -0.6206 C.ar      1 <0>        -0.1368
      2 C2          1.2505    1.9541   -0.6180 C.ar      1 <0>        -0.0781
      3 C3          2.3815    1.4123   -0.0243 C.ar      1 <0>         0.1191
      4 C4          2.3191    0.1552    0.5672 C.ar      1 <0>         0.0960
      5 C5          1.1304   -0.5510    0.5621 C.ar      1 <0>        -0.1690
      6 C6          0.0037   -0.0068   -0.0315 C.ar      1 <0>         0.1056
      7 F1         -1.1571   -0.6980   -0.0353 F         1 <0>        -0.1332
      8 F2          3.4186   -0.3754    1.1458 F         1 <0>        -0.1280
      9 N1          3.5849    2.1306   -0.0212 N.am      1 <0>        -0.6652
     10 C7          3.5677    3.4749   -0.1160 C.2       1 <0>         0.5417
     11 O1          2.5110    4.0703   -0.1029 O.2       1 <0>        -0.4992
     12 C8          4.8612    4.2383   -0.2383 C.3       1 <0>        -0.1440
     13 S1          4.5074    6.0142   -0.3461 S.3       1 <0>         0.0397
     14 C9          6.0987    6.7584   -0.4826 C.ar      1 <0>         0.3273
     15 N2          7.1783    5.9893   -0.4901 N.ar      1 <0>        -0.6133
     16 C10         8.3790    6.5314   -0.5925 C.ar      1 <0>         0.4652
     17 O2          9.4797    5.7410   -0.5999 O.3       1 <0>        -0.6854
     18 C11         8.5164    7.9287   -0.6943 C.ar      1 <0>        -0.3048
     19 C12         7.3763    8.6911   -0.6828 C.ar      1 <0>         0.1678
     20 N3          6.1938    8.0703   -0.5810 N.ar      1 <0>        -0.5791
     21 C13         7.5562   10.2038   -0.7940 C.3       1 <0>         0.0005
     22 S2          9.3472   10.3989   -0.4216 S.3       1 <0>        -0.3114
     23 C14         9.8443    8.6723   -0.8173 C.3       1 <0>         0.0323
     24 H1         -0.8165    1.6684   -1.0789 H         1 <0>         0.1474
     25 H2          1.2969    2.9301   -1.0783 H         1 <0>         0.1687
     26 H3          1.0806   -1.5274    1.0211 H         1 <0>         0.1517
     27 H4          4.4303    1.6601    0.0492 H         1 <0>         0.4207
     28 H5          5.4819    4.0439    0.6364 H         1 <0>         0.1267
     29 H6          5.3888    3.9177   -1.1366 H         1 <0>         0.1280
     30 H7          7.3274   10.5506   -1.8017 H         1 <0>         0.1050
     31 H8          6.9456   10.7243   -0.0561 H         1 <0>         0.1128
     32 H9         10.5685    8.2994   -0.0931 H         1 <0>         0.1020
     33 H10        10.2378    8.6025   -1.8314 H         1 <0>         0.0890
@<TRIPOS>BOND
     1    1    6 ar
     2    1    2 ar
     3    1   24 1
     4    2    3 ar
     5    2   25 1
     6    3    4 ar
     7    3    9 1
     8    4    5 ar
     9    4    8 1
    10    5    6 ar
    11    5   26 1
    12    6    7 1
    13    9   10 am
    14    9   27 1
    15   10   11 2
    16   10   12 1
    17   12   28 1
    18   12   29 1
    19   12   13 1
    20   13   14 1
    21   14   20 ar
    22   14   15 ar
    23   15   16 ar
    24   16   17 1
    25   16   18 ar
    26   18   23 1
    27   18   19 ar
    28   19   20 ar
    29   19   21 1
    30   21   22 1
    31   21   30 1
    32   21   31 1
    33   22   23 1
    34   23   32 1
    35   23   33 1
@<TRIPOS>MOLECULE
ZINC01248418
   45    47     0     0     0
SMALL
USER_CHARGES

@<TRIPOS>ATOM
      1 C1         -0.0187    1.5258    0.0104 C.3       1 <0>        -0.1538
      2 C2          0.0021   -0.0041    0.0020 C.3       1 <0>        -0.0514
      3 C3          0.7398   -0.5015   -1.2429 C.3       1 <0>        -0.0923
      4 C4          2.1669   -0.0116   -1.2155 C.2       1 <0>         0.2311
      5 C5          2.8135    0.1802   -0.0460 C.2       1 <0>        -0.2811
      6 C6          4.2438    0.6568   -0.0204 C.3       1 <0>         0.0964
      7 H1          4.3595    1.3981    0.7704 H         1 <0>         0.0896
      8 C7          4.6330    1.2721   -1.3323 C.2       1 <0>        -0.1344
      9 C8          3.9067    1.0408   -2.4587 C.2       1 <0>         0.1606
     10 N1          2.7912    0.2376   -2.4074 N.pl3     1 <0>        -0.6346
     11 S1          4.3955    1.7711   -3.9859 S.3       1 <0>         0.0089
     12 C9          3.1511    1.1872   -5.1697 C.3       1 <0>        -0.1930
     13 C10         3.4557    1.7464   -6.5355 C.2       1 <0>         0.5143
     14 O1          4.4226    2.4716   -6.6956 O.co2     1 <0>        -0.6656
     15 O2          2.7352    1.4735   -7.4805 O.co2     1 <0>        -0.6755
     16 C11         5.7874    2.1168   -1.3994 C.1       1 <0>         0.2706
     17 N2          6.7031    2.7869   -1.4527 N.1       1 <0>        -0.4265
     18 C12         5.1498   -0.5136    0.2633 C.ar      1 <0>        -0.0631
     19 C13         5.1731   -1.5943   -0.5983 C.ar      1 <0>        -0.1029
     20 C14         6.0041   -2.6679   -0.3381 C.ar      1 <0>        -0.1236
     21 C15         6.8121   -2.6606    0.7835 C.ar      1 <0>        -0.1266
     22 C16         6.7894   -1.5795    1.6447 C.ar      1 <0>        -0.1225
     23 C17         5.9616   -0.5040    1.3821 C.ar      1 <0>        -0.1014
     24 C18         2.1731   -0.0554    1.1830 C.2       1 <0>         0.4090
     25 O3          2.7870    0.1167    2.2175 O.2       1 <0>        -0.4733
     26 C19         0.7425   -0.5158    1.2421 C.3       1 <0>        -0.1570
     27 C20        -1.4319   -0.5377    0.0027 C.3       1 <0>        -0.1406
     28 H2          1.0039    1.9031    0.0027 H         1 <0>         0.0631
     29 H3         -0.5459    1.8868   -0.8726 H         1 <0>         0.0616
     30 H4         -0.5289    1.8773    0.9072 H         1 <0>         0.0616
     31 H5          0.7305   -1.5913   -1.2591 H         1 <0>         0.1005
     32 H6          0.2427   -0.1215   -2.1354 H         1 <0>         0.0932
     33 H7          2.4441   -0.1557   -3.2234 H         1 <0>         0.4192
     34 H8          3.1711    0.0981   -5.2102 H         1 <0>         0.0873
     35 H9          2.1631    1.5209   -4.8525 H         1 <0>         0.0898
     36 H10         4.5418   -1.6001   -1.4746 H         1 <0>         0.1133
     37 H11         6.0217   -3.5126   -1.0108 H         1 <0>         0.1172
     38 H12         7.4608   -3.4997    0.9872 H         1 <0>         0.1164
     39 H13         7.4205   -1.5739    2.5211 H         1 <0>         0.1178
     40 H14         5.9466    0.3423    2.0529 H         1 <0>         0.1199
     41 H15         0.2683   -0.1189    2.1397 H         1 <0>         0.0953
     42 H16         0.7105   -1.6052    1.2623 H         1 <0>         0.0986
     43 H17        -1.9538   -0.1780   -0.8841 H         1 <0>         0.0617
     44 H18        -1.4140   -1.6275   -0.0033 H         1 <0>         0.0596
     45 H19        -1.9494   -0.1877    0.8959 H         1 <0>         0.0627
@<TRIPOS>BOND
     1    1    2 1
     2    1   28 1
     3    1   29 1
     4    1   30 1
     5    2   26 1
     6    2    3 1
     7    2   27 1
     8    3    4 1
     9    3   31 1
    10    3   32 1
    11    4   10 1
    12    4    5 2
    13    5    6 1
    14    5   24 1
    15    6    7 1
    16    6    8 1
    17    6   18 1
    18    8    9 2
    19    8   16 1
    20    9   10 1
    21    9   11 1
    22   10   33 1
    23   11   12 1
    24   12   13 1
    25   12   34 1
    26   12   35 1
    27   13   14 2
    28   13   15 1
    29   16   17 3
    30   18   23 ar
    31   18   19 ar
    32   19   20 ar
    33   19   36 1
    34   20   21 ar
    35   20   37 1
    36   21   22 ar
    37   21   38 1
    38   22   23 ar
    39   22   39 1
    40   23   40 1
    41   24   25 2
    42   24   26 1
    43   26   41 1
    44   26   42 1
    45   27   43 1
    46   27   44 1
    47   27   45 1
@<TRIPOS>MOLECULE
ZINC63469599
   43    45     0     0     0
SMALL
USER_CHARGES

@<TRIPOS>ATOM
      1 C1         -0.0225    1.8097    0.0120 C.3       1 <0>        -0.6306
      2 S1          0.0021   -0.0041    0.0020 S.o2      1 <0>         2.5154
      3 O1          0.8352   -0.4880    1.0465 O.2       1 <0>        -1.0286
      4 O2         -1.3147   -0.5105   -0.1678 O.2       1 <0>        -1.0287
      5 N1          0.7947   -0.4113   -1.3938 N.2       1 <0>        -1.0333
      6 C2          0.9910   -1.7489   -1.7166 C.ar      1 <0>         0.3284
      7 C3          0.5185   -2.7468   -0.8734 C.ar      1 <0>        -0.2336
      8 C4          0.7140   -4.0741   -1.1950 C.ar      1 <0>        -0.0709
      9 C5          1.3824   -4.4234   -2.3601 C.ar      1 <0>        -0.0335
     10 C6          1.8583   -3.4459   -3.2091 C.ar      1 <0>        -0.0675
     11 C7          1.6622   -2.0974   -2.8984 C.ar      1 <0>        -0.2048
     12 C8          2.1632   -1.0474   -3.8040 C.2       1 <0>         0.5686
     13 O3          1.9952    0.1248   -3.5275 O.2       1 <0>        -0.4939
     14 N2          2.8073   -1.3867   -4.9382 N.am      1 <0>        -0.7425
     15 C9          3.3051   -0.3433   -5.8380 C.3       1 <0>         0.1902
     16 C10         3.3844   -0.8990   -7.2585 C.3       1 <0>        -0.1246
     17 C11         4.1072    0.1269   -8.1395 C.3       1 <0>        -0.1154
     18 C12         5.5776    0.1642   -7.7276 C.3       1 <0>        -0.0785
     19 C13         5.7057    0.3466   -6.2379 C.ar      1 <0>        -0.0773
     20 C14         4.6632    0.1099   -5.3698 C.ar      1 <0>        -0.0891
     21 C15         4.8497    0.2912   -4.0057 C.ar      1 <0>        -0.0977
     22 C16         6.0691    0.7098   -3.5141 C.ar      1 <0>        -0.1284
     23 C17         7.1143    0.9511   -4.3858 C.ar      1 <0>        -0.1213
     24 C18         6.9316    0.7696   -5.7414 C.ar      1 <0>        -0.1339
     25 F1          1.5681   -5.7266   -2.6640 F         1 <0>        -0.1625
     26 H1          1.0001    2.1870    0.0043 H         1 <0>         0.1172
     27 H2         -0.5497    2.1708   -0.8711 H         1 <0>         0.1173
     28 H3         -0.5327    2.1613    0.9088 H         1 <0>         0.1010
     29 H4         -0.0022   -2.4832    0.0352 H         1 <0>         0.1167
     30 H5          0.3451   -4.8461   -0.5360 H         1 <0>         0.1179
     31 H6          2.3782   -3.7222   -4.1145 H         1 <0>         0.1177
     32 H7          2.9413   -2.3217   -5.1587 H         1 <0>         0.3924
     33 H8          2.6185    0.5031   -5.8216 H         1 <0>         0.0964
     34 H9          3.9403   -1.8366   -7.2553 H         1 <0>         0.0695
     35 H10         2.3787   -1.0691   -7.6428 H         1 <0>         0.0740
     36 H11         4.0264   -0.1664   -9.1862 H         1 <0>         0.0697
     37 H12         3.6612    1.1113   -7.9980 H         1 <0>         0.0684
     38 H13         6.0559   -0.7714   -8.0177 H         1 <0>         0.0731
     39 H14         6.0721    0.9924   -8.2351 H         1 <0>         0.0712
     40 H15         4.0334    0.1034   -3.3240 H         1 <0>         0.1429
     41 H16         6.2064    0.8486   -2.4519 H         1 <0>         0.1184
     42 H17         8.0705    1.2810   -4.0073 H         1 <0>         0.1155
     43 H18         7.7488    0.9581   -6.4218 H         1 <0>         0.1145
@<TRIPOS>BOND
     1    1    2 1
     2    1   26 1
     3    1   27 1
     4    1   28 1
     5    2    3 2
     6    2    4 2
     7    2    5 1
     8    5    6 1
     9    6   11 ar
    10    6    7 ar
    11    7    8 ar
    12    7   29 1
    13    8    9 ar
    14    8   30 1
    15    9   10 ar
    16    9   25 1
    17   10   11 ar
    18   10   31 1
    19   11   12 1
    20   12   13 2
    21   12   14 am
    22   14   15 1
    23   14   32 1
    24   15   20 1
    25   15   16 1
    26   15   33 1
    27   16   17 1
    28   16   34 1
    29   16   35 1
    30   17   18 1
    31   17   36 1
    32   17   37 1
    33   18   19 1
    34   18   38 1
    35   18   39 1
    36   19   24 ar
    37   19   20 ar
    38   20   21 ar
    39   21   22 ar
    40   21   40 1
    41   22   23 ar
    42   22   41 1
    43   23   24 ar
    44   23   42 1
    45   24   43 1
@<TRIPOS>MOLECULE
ZINC67178019
   43    45     0     0     0
SMALL
USER_CHARGES

@<TRIPOS>ATOM
      1 C1          0.0093    1.5861    0.0408 C.3       1 <0>        -0.1466
      2 C2         -0.0289    0.0567    0.0635 C.3       1 <0>        -0.0705
      3 H1          0.4410   -0.3319   -0.8400 H         1 <0>         0.0860
      4 C3          0.7271   -0.4541    1.2916 C.3       1 <0>         0.1280
      5 N1          2.1446   -0.1036    1.1733 N.am      1 <0>        -0.6115
      6 C4          2.6312    1.1706    1.7080 C.3       1 <0>         0.0649
      7 C5          3.0011   -0.9533    0.5725 C.2       1 <0>         0.5627
      8 O1          2.5820   -1.9593    0.0350 O.2       1 <0>        -0.5264
      9 C6          4.4532   -0.6608    0.5673 C.ar      1 <0>        -0.0763
     10 C7          5.0409   -0.0381    1.6794 C.ar      1 <0>        -0.1726
     11 C8          6.3734    0.2411    1.6987 C.ar      1 <0>        -0.0131
     12 C9          7.1737   -0.0949    0.5975 C.ar      1 <0>        -0.2246
     13 C10         6.5927   -0.7251   -0.5341 C.ar      1 <0>         0.2161
     14 C11         5.2195   -1.0096   -0.5326 C.ar      1 <0>        -0.0794
     15 N2          7.3719   -1.0402   -1.5785 N.2       1 <0>        -0.5513
     16 C12         8.6681   -0.7700   -1.5618 C.2       1 <0>         0.5087
     17 N3          9.2659   -0.1757   -0.5158 N.pl3     1 <0>        -0.6017
     18 H2         10.2188    0.0027   -0.5475 H         1 <0>         0.4203
     19 C13         8.5582    0.1773    0.5790 C.2       1 <0>         0.5039
     20 O2          9.1578    0.7721    1.6252 O.3       1 <0>        -0.6139
     21 S1          9.6167   -1.1940   -2.9224 S.2       1 <0>        -0.7121
     22 C14        -1.4607   -0.4091    0.1252 C.ar      1 <0>        -0.0703
     23 C15        -2.2643   -0.0346    1.1859 C.ar      1 <0>        -0.1165
     24 C16        -3.5777   -0.4619    1.2426 C.ar      1 <0>        -0.1202
     25 C17        -4.0877   -1.2634    0.2384 C.ar      1 <0>        -0.1266
     26 C18        -3.2844   -1.6372   -0.8227 C.ar      1 <0>        -0.1180
     27 C19        -1.9722   -1.2063   -0.8816 C.ar      1 <0>        -0.1117
     28 H3          1.0450    1.9230   -0.0039 H         1 <0>         0.0653
     29 H4         -0.5292    1.9501   -0.8342 H         1 <0>         0.0562
     30 H5         -0.4605    1.9747    0.9443 H         1 <0>         0.0561
     31 H6          0.3132    0.0043    2.1897 H         1 <0>         0.0786
     32 H7          0.6249   -1.5374    1.3565 H         1 <0>         0.0851
     33 H8          2.8603    1.0562    2.7675 H         1 <0>         0.0602
     34 H9          3.5319    1.4694    1.1717 H         1 <0>         0.0868
     35 H10         1.8635    1.9341    1.5826 H         1 <0>         0.0732
     36 H11         4.4288    0.2230    2.5300 H         1 <0>         0.1317
     37 H12         6.8132    0.7209    2.5605 H         1 <0>         0.1355
     38 H13         4.7625   -1.4928   -1.3835 H         1 <0>         0.1417
     39 H14        -1.8658    0.5916    1.9704 H         1 <0>         0.1204
     40 H15        -4.2052   -0.1698    2.0716 H         1 <0>         0.1198
     41 H16        -5.1136   -1.5978    0.2830 H         1 <0>         0.1189
     42 H17        -3.6828   -2.2636   -1.6071 H         1 <0>         0.1208
     43 H18        -1.3457   -1.4953   -1.7125 H         1 <0>         0.1227
@<TRIPOS>BOND
     1    1    2 1
     2    1   28 1
     3    1   29 1
     4    1   30 1
     5    2    3 1
     6    2    4 1
     7    2   22 1
     8    4    5 1
     9    4   31 1
    10    4   32 1
    11    5    6 1
    12    5    7 am
    13    6   33 1
    14    6   34 1
    15    6   35 1
    16    7    8 2
    17    7    9 1
    18    9   14 ar
    19    9   10 ar
    20   10   11 ar
    21   10   36 1
    22   11   12 ar
    23   11   37 1
    24   12   19 2
    25   12   13 ar
    26   13   14 ar
    27   13   15 2
    28   14   38 1
    29   15   16 1
    30   16   17 1
    31   16   21 2
    32   17   18 1
    33   17   19 1
    34   19   20 1
    35   22   27 ar
    36   22   23 ar
    37   23   24 ar
    38   23   39 1
    39   24   25 ar
    40   24   40 1
    41   25   26 ar
    42   25   41 1
    43   26   27 ar
    44   26   42 1
    45   27   43 1
@<TRIPOS>MOLECULE
ZINC13233014
   53    54     0     0     0
SMALL
USER_CHARGES
(2S)-2-[3-[2-[ethyl-[2-(isopropylamino)-2-oxo-ethyl]amino]-2-oxo-ethyl]sulfanyl-5-(2-thienyl)-1,2,4-triazol-4-yl]propanoic acid
@<TRIPOS>ATOM
      1 C1          1.8011    8.5407   -1.4145 C.3       1 <0>        -0.1743
      2 C2          1.3068    8.5867    0.0327 C.3       1 <0>         0.1059
      3 N1         -0.1503    8.7382    0.0465 N.am      1 <0>        -0.5938
      4 C3         -0.7475   10.0759    0.0582 C.3       1 <0>         0.0983
      5 C4         -0.9395   10.5279    1.4830 C.2       1 <0>         0.4973
      6 O1         -0.6099    9.8039    2.3985 O.2       1 <0>        -0.5248
      7 N2         -1.4774   11.7367    1.7398 N.am      1 <0>        -0.7291
      8 C5         -1.6641   12.1761    3.1248 C.3       1 <0>         0.1355
      9 C6         -0.3683   12.8065    3.6389 C.3       1 <0>        -0.1620
     10 C7         -2.7921   13.2080    3.1849 C.3       1 <0>        -0.1605
     11 C8         -0.9413    7.6471    0.0485 C.2       1 <0>         0.5455
     12 O2         -2.1476    7.7725    0.0599 O.2       1 <0>        -0.5148
     13 C9         -0.3270    6.2710    0.0365 C.3       1 <0>        -0.1646
     14 S1         -1.6392    5.0244    0.0424 S.3       1 <0>         0.1229
     15 C10        -0.6660    3.5556    0.0267 C.2       1 <0>         0.1584
     16 N3          0.6459    3.4907    0.0142 N.2       1 <0>        -0.3019
     17 N4          1.0284    2.2640    0.0044 N.2       1 <0>        -0.2636
     18 C11        -0.0179    1.4676    0.0101 C.2       1 <0>         0.2510
     19 N5         -1.1360    2.2716    0.0191 N.pl3     1 <0>        -0.4135
     20 C12        -2.5363    1.8412    0.0225 C.3       1 <0>         0.0751
     21 H1         -2.5817    0.7521    0.0168 H         1 <0>         0.1012
     22 C13        -3.2306    2.3739    1.2775 C.3       1 <0>        -0.1471
     23 C14        -3.2303    2.3792   -1.2022 C.2       1 <0>         0.4598
     24 O3         -4.1825    3.1135   -1.0835 O.co2     1 <0>        -0.5992
     25 C15         0.0021   -0.0041    0.0020 C.2       1 <0>        -0.0769
     26 C16         1.0466   -0.8561    0.2582 C.2       1 <0>        -0.1198
     27 C17         0.8230   -2.2131    0.1945 C.2       1 <0>        -0.1566
     28 C18        -0.4157   -2.6658   -0.1300 C.2       1 <0>        -0.1861
     29 S2         -1.3246   -1.1454   -0.3514 S.3       1 <0>         0.1006
     30 H2          1.3430    7.6955   -1.9282 H         1 <0>         0.0631
     31 H3          1.5272    9.4659   -1.9215 H         1 <0>         0.0581
     32 H4          2.8852    8.4279   -1.4248 H         1 <0>         0.0714
     33 H5          1.7649    9.4318    0.5465 H         1 <0>         0.0800
     34 H6          1.5807    7.6614    0.5398 H         1 <0>         0.0874
     35 H7         -0.0876   10.7730   -0.4583 H         1 <0>         0.1088
     36 H8         -1.7129   10.0473   -0.4471 H         1 <0>         0.1166
     37 H9         -1.7410   12.3157    1.0076 H         1 <0>         0.3994
     38 H10        -1.9226   11.3187    3.7463 H         1 <0>         0.0874
     39 H11         0.4353   12.0713    3.5961 H         1 <0>         0.0596
     40 H12        -0.1098   13.6638    3.0174 H         1 <0>         0.0554
     41 H13        -0.5071   13.1334    4.6694 H         1 <0>         0.0642
     42 H14        -3.7153   12.7589    2.8186 H         1 <0>         0.0631
     43 H15        -2.9310   13.5349    4.2154 H         1 <0>         0.0716
     44 H16        -2.5337   14.0654    2.5634 H         1 <0>         0.0601
     45 H17         0.2983    6.1445    0.9203 H         1 <0>         0.1237
     46 H18         0.2823    6.1529   -0.8596 H         1 <0>         0.1241
     47 H19        -3.1853    3.4630    1.2832 H         1 <0>         0.0763
     48 H20        -4.2725    2.0537    1.2801 H         1 <0>         0.0856
     49 H21        -2.7287    1.9848    2.1633 H         1 <0>         0.0513
     50 H22         2.0238   -0.4700    0.5081 H         1 <0>         0.1429
     51 H23         1.6242   -2.9091    0.3950 H         1 <0>         0.1365
     52 H24        -0.7618   -3.6840   -0.2292 H         1 <0>         0.1872
     53 O4         -2.7906    2.0428   -2.4250 O.co2     1 <0>        -0.7367
@<TRIPOS>BOND
     1    1    2 1
     2    1   30 1
     3    1   31 1
     4    1   32 1
     5    2    3 1
     6    2   33 1
     7    2   34 1
     8    3    4 1
     9    3   11 am
    10    4    5 1
    11    4   35 1
    12    4   36 1
    13    5    6 2
    14    5    7 am
    15    7    8 1
    16    7   37 1
    17    8    9 1
    18    8   10 1
    19    8   38 1
    20    9   39 1
    21    9   40 1
    22    9   41 1
    23   10   42 1
    24   10   43 1
    25   10   44 1
    26   11   12 2
    27   11   13 1
    28   13   14 1
    29   13   45 1
    30   13   46 1
    31   14   15 1
    32   15   19 1
    33   15   16 2
    34   16   17 1
    35   17   18 2
    36   18   19 1
    37   18   25 1
    38   19   20 1
    39   20   21 1
    40   20   22 1
    41   20   23 1
    42   22   47 1
    43   22   48 1
    44   22   49 1
    45   23   24 2
    46   23   53 1
    47   25   29 1
    48   25   26 2
    49   26   27 1
    50   26   50 1
    51   27   28 2
    52   27   51 1
    53   28   29 1
    54   28   52 1
@<TRIPOS>MOLECULE
ZINC09375030
   53    55     0     0     0
SMALL
USER_CHARGES
(5S)-3-hydroxy-1-[2-(2-hydroxyethoxy)ethyl]-5-(4-methoxyphenyl)-4-(3-nitrobenzoyl)-5H-pyrrol-2-one
@<TRIPOS>ATOM
      1 C1         -6.8339   -1.6260    2.3539 C.3       1 <0>         0.0255
      2 O1         -5.7911   -1.7830    3.3182 O.3       1 <0>        -0.3218
      3 C2         -4.5154   -1.6189    2.8796 C.ar      1 <0>         0.1157
      4 C3         -3.4540   -1.7569    3.7623 C.ar      1 <0>        -0.1526
      5 C4         -2.1581   -1.5901    3.3138 C.ar      1 <0>        -0.0796
      6 C5         -1.9183   -1.2859    1.9865 C.ar      1 <0>        -0.1124
      7 C6         -2.9747   -1.1422    1.1061 C.ar      1 <0>        -0.0495
      8 C7         -4.2722   -1.3136    1.5483 C.ar      1 <0>        -0.2050
      9 C8         -0.5036   -1.1044    1.5001 C.3       1 <0>         0.2710
     10 H1          0.1438   -0.9481    2.3755 H         1 <0>         0.0627
     11 C9         -0.0782   -2.3011    0.6817 C.2       1 <0>        -0.5102
     12 C10         0.2117   -1.8431   -0.5586 C.2       1 <0>         0.2735
     13 C11        -0.0104   -0.3821   -0.6007 C.2       1 <0>         0.5151
     14 O2          0.1575    0.3208   -1.5773 O.2       1 <0>        -0.5155
     15 N1         -0.4232    0.0544    0.6031 N.am      1 <0>        -0.6096
     16 C12        -0.7421    1.4403    0.9546 C.3       1 <0>         0.1377
     17 C13         0.5165    2.1367    1.4761 C.3       1 <0>         0.0427
     18 O3          1.4816    2.2255    0.4259 O.3       1 <0>        -0.3570
     19 C14         2.7014    2.8632    0.8099 C.3       1 <0>         0.0613
     20 C15         3.6549    2.9023   -0.3860 C.3       1 <0>         0.0878
     21 O4          3.1010    3.7312   -1.4099 O.3       1 <0>        -0.5915
     22 O5          0.6320   -2.6023   -1.5964 O.3       1 <0>        -0.6477
     23 C16         0.0042   -3.6904    1.1420 C.2       1 <0>         0.5033
     24 O6         -0.7194   -4.5373    0.6527 O.2       1 <0>        -0.4607
     25 C17         0.9666   -4.0625    2.2010 C.ar      1 <0>        -0.1301
     26 C18         1.8788   -3.1207    2.6824 C.ar      1 <0>        -0.0160
     27 C19         2.7733   -3.4743    3.6706 C.ar      1 <0>        -0.1320
     28 C20         2.7686   -4.7592    4.1852 C.ar      1 <0>        -0.0456
     29 C21         1.8674   -5.6971    3.7132 C.ar      1 <0>        -0.0589
     30 C22         0.9639   -5.3554    2.7284 C.ar      1 <0>        -0.0137
     31 N2          1.8694   -7.0686    4.2699 N.pl3     1 <0>         0.0327
     32 O7          2.6638   -7.3706    5.1424 O.2       1 <0>        -0.1692
     33 O8          1.0767   -7.8953    3.8554 O.3       1 <0>        -0.1610
     34 H2         -7.8085   -1.7843    2.8387 H         1 <0>         0.0971
     35 H3         -6.7015   -2.3624    1.5476 H         1 <0>         0.0558
     36 H4         -6.7943   -0.6104    1.9331 H         1 <0>         0.0539
     37 H5         -3.6407   -1.9949    4.7991 H         1 <0>         0.1251
     38 H6         -1.3314   -1.6978    4.0005 H         1 <0>         0.1240
     39 H7         -2.7851   -0.8999    0.0708 H         1 <0>         0.1208
     40 H8         -5.0967   -1.2057    0.8592 H         1 <0>         0.1234
     41 H9         -1.1111    1.9690    0.0633 H         1 <0>         0.0872
     42 H10        -1.5174    1.4516    1.7348 H         1 <0>         0.0904
     43 H11         0.2587    3.1480    1.8236 H         1 <0>         0.0535
     44 H12         0.9363    1.5577    2.3119 H         1 <0>         0.0493
     45 H13         2.4893    3.8897    1.1434 H         1 <0>         0.0495
     46 H14         3.1670    2.2995    1.6318 H         1 <0>         0.0587
     47 H15         4.6253    3.3113   -0.0680 H         1 <0>         0.0509
     48 H16         3.7964    1.8834   -0.7756 H         1 <0>         0.0530
     49 H17         3.6480    3.8807   -2.3524 H         1 <0>         0.4044
     50 H18         1.8837   -2.1179    2.2815 H         1 <0>         0.1543
     51 H19         3.4790   -2.7470    4.0440 H         1 <0>         0.1486
     52 H20         3.4714   -5.0309    4.9590 H         1 <0>         0.1512
     53 H21         0.2582   -6.0872    2.3638 H         1 <0>         0.1593
@<TRIPOS>BOND
     1    1    2 1
     2    1   34 1
     3    1   35 1
     4    1   36 1
     5    2    3 1
     6    3    8 ar
     7    3    4 ar
     8    4    5 ar
     9    4   37 1
    10    5    6 ar
    11    5   38 1
    12    6    7 ar
    13    6    9 1
    14    7    8 ar
    15    7   39 1
    16    8   40 1
    17    9   10 1
    18    9   15 1
    19    9   11 1
    20   11   12 2
    21   11   23 1
    22   12   13 1
    23   12   22 1
    24   13   14 2
    25   13   15 am
    26   15   16 1
    27   16   17 1
    28   16   41 1
    29   16   42 1
    30   17   18 1
    31   17   43 1
    32   17   44 1
    33   18   19 1
    34   19   20 1
    35   19   45 1
    36   19   46 1
    37   20   21 1
    38   20   47 1
    39   20   48 1
    40   21   49 1
    41   23   24 2
    42   23   25 1
    43   25   30 ar
    44   25   26 ar
    45   26   27 ar
    46   26   50 1
    47   27   28 ar
    48   27   51 1
    49   28   29 ar
    50   28   52 1
    51   29   30 ar
    52   29   31 1
    53   30   53 1
    54   31   32 2
    55   31   33 1
@<TRIPOS>MOLECULE
ZINC40079606
   65    67     0     0     0
SMALL
USER_CHARGES

@<TRIPOS>ATOM
      1 C1         -0.3062    1.4904    0.2824 C.3       1 <0>        -0.1495
      2 C2         -0.2692   -0.0390    0.2605 C.3       1 <0>         0.0541
      3 O1          0.3829   -0.4827   -0.9311 O.3       1 <0>        -0.3095
      4 C3          0.5003   -1.8261   -1.1071 C.ar      1 <0>         0.0886
      5 C4         -0.0063   -2.6978   -0.1565 C.ar      1 <0>        -0.1752
      6 C5          0.1134   -4.0631   -0.3372 C.ar      1 <0>        -0.0973
      7 C6          0.7384   -4.5621   -1.4649 C.ar      1 <0>        -0.0615
      8 C7          1.2465   -3.6980   -2.4168 C.ar      1 <0>        -0.1435
      9 C8          1.1243   -2.3284   -2.2449 C.ar      1 <0>         0.0933
     10 O2          1.6182   -1.4770   -3.1834 O.3       1 <0>        -0.3114
     11 C9          2.1534   -2.0618   -4.3723 C.3       1 <0>         0.0267
     12 C10         0.8667   -6.0514   -1.6565 C.3       1 <0>         0.2638
     13 H1          1.0416   -6.2799   -2.7079 H         1 <0>         0.0661
     14 C11         1.9992   -6.5881   -0.8128 C.2       1 <0>        -0.4827
     15 C12         1.4566   -7.4816    0.0466 C.2       1 <0>         0.2828
     16 C13         0.0003   -7.5621   -0.1920 C.2       1 <0>         0.5094
     17 O3         -0.7683   -8.2761    0.4210 O.2       1 <0>        -0.5173
     18 N1         -0.3494   -6.7269   -1.1889 N.am      1 <0>        -0.6083
     19 C14        -1.7026   -6.5271   -1.7135 C.3       1 <0>         0.1401
     20 C15        -1.9572   -7.5121   -2.8563 C.3       1 <0>         0.0432
     21 O4         -1.9426   -8.8470   -2.3466 O.3       1 <0>        -0.3580
     22 C16        -2.1717   -9.8502   -3.3382 C.3       1 <0>         0.0622
     23 C17        -2.1343  -11.2325   -2.6833 C.3       1 <0>         0.0790
     24 O5         -3.2220  -11.3538   -1.7644 O.3       1 <0>        -0.5635
     25 O6          2.1390   -8.1892    0.9763 O.3       1 <0>        -0.6132
     26 C18         3.4138   -6.2132   -0.9070 C.2       1 <0>         0.4813
     27 O7          3.7860   -5.4586   -1.7862 O.2       1 <0>        -0.5268
     28 C19         4.3861   -6.7510    0.0647 C.ar      1 <0>        -0.1134
     29 C20         5.2528   -7.7831   -0.3087 C.ar      1 <0>        -0.0513
     30 C21         6.1579   -8.2818    0.6003 C.ar      1 <0>        -0.2148
     31 C22         6.2114   -7.7608    1.8887 C.ar      1 <0>         0.1206
     32 C23         5.3513   -6.7350    2.2641 C.ar      1 <0>        -0.1530
     33 C24         4.4471   -6.2262    1.3590 C.ar      1 <0>        -0.0008
     34 C25         3.5199   -5.1097    1.7650 C.3       1 <0>        -0.1093
     35 O8          7.1053   -8.2552    2.7819 O.3       1 <0>        -0.3222
     36 C26         8.0318   -9.2307    2.3002 C.3       1 <0>         0.0301
     37 H2          0.7119    1.8788    0.2592 H         1 <0>         0.0647
     38 H3         -0.8534    1.8530   -0.5878 H         1 <0>         0.0637
     39 H4         -0.8037    1.8288    1.1913 H         1 <0>         0.0742
     40 H5          0.2779   -0.4017    1.1307 H         1 <0>         0.0590
     41 H6         -1.2874   -0.4275    0.2836 H         1 <0>         0.0576
     42 H7         -0.4944   -2.3105    0.7257 H         1 <0>         0.1279
     43 H8         -0.2819   -4.7414    0.4045 H         1 <0>         0.1204
     44 H9          1.7346   -4.0903   -3.2967 H         1 <0>         0.1347
     45 H10         2.9325   -2.7763   -4.1069 H         1 <0>         0.0604
     46 H11         1.3590   -2.5751   -4.9142 H         1 <0>         0.0500
     47 H12         2.5769   -1.2800   -5.0028 H         1 <0>         0.0932
     48 H13        -2.4291   -6.6969   -0.9188 H         1 <0>         0.0860
     49 H14        -1.8016   -5.5069   -2.0843 H         1 <0>         0.0899
     50 H15        -2.9288   -7.3050   -3.3048 H         1 <0>         0.0530
     51 H16        -1.1780   -7.4026   -3.6106 H         1 <0>         0.0493
     52 H17        -3.1478   -9.6917   -3.7967 H         1 <0>         0.0501
     53 H18        -1.3970   -9.7893   -4.1025 H         1 <0>         0.0580
     54 H19        -2.2203  -12.0009   -3.4515 H         1 <0>         0.0551
     55 H20        -1.1921  -11.3563   -2.1494 H         1 <0>         0.0565
     56 H21        -3.2608  -12.2071   -1.3113 H         1 <0>         0.3762
     57 H22         5.2117   -8.1885   -1.3089 H         1 <0>         0.1172
     58 H23         6.8274   -9.0790    0.3129 H         1 <0>         0.1206
     59 H24         5.3956   -6.3337    3.2658 H         1 <0>         0.1235
     60 H25         2.6367   -5.5283    2.2475 H         1 <0>         0.0774
     61 H26         4.0334   -4.4457    2.4604 H         1 <0>         0.0586
     62 H27         3.2190   -4.5477    0.8809 H         1 <0>         0.0667
     63 H28         8.6404   -9.5938    3.1284 H         1 <0>         0.0927
     64 H29         7.4853  -10.0639    1.8584 H         1 <0>         0.0535
     65 H30         8.6764   -8.7785    1.5465 H         1 <0>         0.0509
@<TRIPOS>BOND
     1    1    2 1
     2    1   37 1
     3    1   38 1
     4    1   39 1
     5    2    3 1
     6    2   40 1
     7    2   41 1
     8    3    4 1
     9    4    9 ar
    10    4    5 ar
    11    5    6 ar
    12    5   42 1
    13    6    7 ar
    14    6   43 1
    15    7    8 ar
    16    7   12 1
    17    8    9 ar
    18    8   44 1
    19    9   10 1
    20   10   11 1
    21   11   45 1
    22   11   46 1
    23   11   47 1
    24   12   13 1
    25   12   18 1
    26   12   14 1
    27   14   15 2
    28   14   26 1
    29   15   16 1
    30   15   25 1
    31   16   17 2
    32   16   18 am
    33   18   19 1
    34   19   20 1
    35   19   48 1
    36   19   49 1
    37   20   21 1
    38   20   50 1
    39   20   51 1
    40   21   22 1
    41   22   23 1
    42   22   52 1
    43   22   53 1
    44   23   24 1
    45   23   54 1
    46   23   55 1
    47   24   56 1
    48   26   27 2
    49   26   28 1
    50   28   33 ar
    51   28   29 ar
    52   29   30 ar
    53   29   57 1
    54   30   31 ar
    55   30   58 1
    56   31   32 ar
    57   31   35 1
    58   32   33 ar
    59   32   59 1
    60   33   34 1
    61   34   60 1
    62   34   61 1
    63   34   62 1
    64   35   36 1
    65   36   63 1
    66   36   64 1
    67   36   65 1
@<TRIPOS>MOLECULE
ZINC40098670
   56    58     0     0     0
SMALL
USER_CHARGES

@<TRIPOS>ATOM
      1 C1         -2.6882   -1.5527    3.8267 C.3       1 <0>        -0.1526
      2 C2         -1.9020   -2.4706    2.8885 C.3       1 <0>         0.0533
      3 O1         -0.5118   -2.1481    2.9612 O.3       1 <0>        -0.3089
      4 C3          0.3195   -2.8061    2.1110 C.ar      1 <0>         0.1387
      5 C4         -0.2026   -3.6649    1.1543 C.ar      1 <0>        -0.2180
      6 C5          0.6444   -4.3321    0.2910 C.ar      1 <0>        -0.0864
      7 C6          2.0117   -4.1448    0.3796 C.ar      1 <0>        -0.1609
      8 C7          2.5344   -3.2901    1.3322 C.ar      1 <0>        -0.0504
      9 C8          1.6910   -2.6159    2.1943 C.ar      1 <0>        -0.1038
     10 C9          2.2611   -1.6795    3.2283 C.3       1 <0>         0.2593
     11 H1          1.6561   -0.7748    3.2884 H         1 <0>         0.0723
     12 C10         3.6887   -1.3279    2.8802 C.2       1 <0>        -0.4912
     13 C11         4.4581   -1.7587    3.9056 C.2       1 <0>         0.2883
     14 C12         3.5975   -2.3865    4.9286 C.2       1 <0>         0.5113
     15 O2          3.9928   -2.8708    5.9706 O.2       1 <0>        -0.5126
     16 N1          2.3096   -2.3420    4.5371 N.am      1 <0>        -0.6012
     17 C13         1.1613   -2.8618    5.2837 C.3       1 <0>         0.1403
     18 C14         0.9863   -4.3509    4.9785 C.3       1 <0>         0.0447
     19 O3          2.1020   -5.0777    5.4970 O.3       1 <0>        -0.3545
     20 C15         2.0371   -6.4861    5.2643 C.3       1 <0>         0.0633
     21 C16         3.2759   -7.1589    5.8588 C.3       1 <0>         0.0798
     22 O4          3.2633   -7.0096    7.2800 O.3       1 <0>        -0.5633
     23 O5          5.8039   -1.6346    3.9821 O.3       1 <0>        -0.6056
     24 C17         4.1514   -0.6499    1.6633 C.2       1 <0>         0.4994
     25 O6          5.3446   -0.5247    1.4521 O.2       1 <0>        -0.4771
     26 C18         3.1773   -0.1231    0.7019 C.2       1 <0>        -0.2384
     27 C19         3.3818    0.4435   -0.5509 C.2       1 <0>         0.0997
     28 N2          2.3083    0.8295   -1.1936 N.2       1 <0>        -0.5233
     29 C20         1.1074    0.6875   -0.6803 C.2       1 <0>         0.0067
     30 S1          1.3967   -0.0379    0.8105 S.3       1 <0>         0.1710
     31 C21        -0.2167    1.0764   -1.2859 C.3       1 <0>        -0.0585
     32 C22         4.7611    0.6050   -1.1360 C.3       1 <0>        -0.0813
     33 H2         -2.4701   -0.5126    3.5844 H         1 <0>         0.0681
     34 H3         -3.7556   -1.7378    3.7058 H         1 <0>         0.0737
     35 H4         -2.3991   -1.7538    4.8582 H         1 <0>         0.0657
     36 H5         -2.0503   -3.5084    3.1870 H         1 <0>         0.0579
     37 H6         -2.2540   -2.3328    1.8661 H         1 <0>         0.0592
     38 H7         -1.2703   -3.8117    1.0850 H         1 <0>         0.1217
     39 H8          0.2385   -5.0009   -0.4535 H         1 <0>         0.1166
     40 H9          2.6723   -4.6674   -0.2963 H         1 <0>         0.1179
     41 H10         3.6026   -3.1457    1.3995 H         1 <0>         0.1362
     42 H11         1.3314   -2.7274    6.3519 H         1 <0>         0.0798
     43 H12         0.2615   -2.3222    4.9883 H         1 <0>         0.1007
     44 H13         0.0693   -4.7119    5.4442 H         1 <0>         0.0459
     45 H14         0.9276   -4.4962    3.8998 H         1 <0>         0.0504
     46 H15         1.1419   -6.8914    5.7359 H         1 <0>         0.0476
     47 H16         2.0002   -6.6758    4.1916 H         1 <0>         0.0559
     48 H17         3.2709   -8.2189    5.6048 H         1 <0>         0.0539
     49 H18         4.1732   -6.6922    5.4525 H         1 <0>         0.0572
     50 H19         4.0212   -7.4132    7.7246 H         1 <0>         0.3757
     51 H20        -0.6531    0.2140   -1.7896 H         1 <0>         0.0813
     52 H21        -0.8900    1.4170   -0.4993 H         1 <0>         0.0798
     53 H22        -0.0645    1.8797   -2.0069 H         1 <0>         0.0847
     54 H23         5.0190   -0.2852   -1.7096 H         1 <0>         0.0704
     55 H24         4.7784    1.4765   -1.7904 H         1 <0>         0.0645
     56 H25         5.4836    0.7406   -0.3312 H         1 <0>         0.0953
@<TRIPOS>BOND
     1    1    2 1
     2    1   33 1
     3    1   34 1
     4    1   35 1
     5    2    3 1
     6    2   36 1
     7    2   37 1
     8    3    4 1
     9    4    9 ar
    10    4    5 ar
    11    5    6 ar
    12    5   38 1
    13    6    7 ar
    14    6   39 1
    15    7    8 ar
    16    7   40 1
    17    8    9 ar
    18    8   41 1
    19    9   10 1
    20   10   11 1
    21   10   16 1
    22   10   12 1
    23   12   13 2
    24   12   24 1
    25   13   14 1
    26   13   23 1
    27   14   15 2
    28   14   16 am
    29   16   17 1
    30   17   18 1
    31   17   42 1
    32   17   43 1
    33   18   19 1
    34   18   44 1
    35   18   45 1
    36   19   20 1
    37   20   21 1
    38   20   46 1
    39   20   47 1
    40   21   22 1
    41   21   48 1
    42   21   49 1
    43   22   50 1
    44   24   25 2
    45   24   26 1
    46   26   30 1
    47   26   27 2
    48   27   28 1
    49   27   32 1
    50   28   29 2
    51   29   30 1
    52   29   31 1
    53   31   51 1
    54   31   52 1
    55   31   53 1
    56   32   54 1
    57   32   55 1
    58   32   56 1
@<TRIPOS>MOLECULE
ZINC15721610
   69    69     0     0     0
SMALL
USER_CHARGES

@<TRIPOS>ATOM
      1 C1          1.2653   -2.6429    2.2123 C.3       1 <0>        -0.1571
      2 C2          0.6252   -1.9378    1.0443 C.ar      1 <0>         0.0928
      3 C3          0.6902   -2.4951   -0.2183 C.ar      1 <0>        -0.2437
      4 C4          0.1005   -1.8459   -1.2929 C.ar      1 <0>         0.1906
      5 C5         -0.5535   -0.6380   -1.0968 C.ar      1 <0>        -0.1539
      6 C6         -0.6157   -0.0850    0.1674 C.ar      1 <0>         0.0560
      7 C7         -0.0315   -0.7368    1.2380 C.ar      1 <0>        -0.6998
      8 S1         -0.1190   -0.0324    2.8507 S.o2      1 <0>         2.7089
      9 O1          0.5987   -0.9037    3.7139 O.2       1 <0>        -0.9195
     10 O2          0.2098    1.3430    2.7115 O.2       1 <0>        -0.9592
     11 N1         -1.7039   -0.0943    3.3268 N.pl3     1 <0>        -1.0360
     12 C8         -2.3360   -1.3084    3.4554 C.2       1 <0>         0.6386
     13 N2         -1.6628   -2.4135    3.2992 N.2       1 <0>        -0.7988
     14 N3         -3.6783   -1.3567    3.7489 N.pl3     1 <0>        -0.7578
     15 C9         -4.3520   -2.6504    3.8860 C.3       1 <0>         0.1253
     16 C10        -5.8297   -2.4240    4.2113 C.3       1 <0>        -0.1225
     17 C11        -6.5333   -3.7750    4.3545 C.3       1 <0>        -0.1072
     18 C12        -8.0111   -3.5486    4.6798 C.3       1 <0>         0.0859
     19 H1         -8.4558   -2.9053    3.9205 H         1 <0>         0.0988
     20 C13        -8.7297   -4.8730    4.6997 C.2       1 <0>         0.4921
     21 O3         -9.1308   -5.3331    5.7552 O.co2     1 <0>        -0.6810
     22 O4         -8.9101   -5.4845    3.6605 O.co2     1 <0>        -0.6886
     23 N4         -8.1297   -2.9088    5.9924 N.am      1 <0>        -0.5566
     24 C14        -7.6036   -3.5790    7.1841 C.3       1 <0>         0.0870
     25 C15        -8.7228   -1.7037    6.1035 C.2       1 <0>         0.6456
     26 O5         -9.1591   -1.1478    5.1150 O.2       1 <0>        -0.5825
     27 O6         -8.8318   -1.1157    7.3098 O.3       1 <0>        -0.3593
     28 C16        -9.4718    0.1612    7.3536 C.3       1 <0>         0.1331
     29 C17       -10.9029    0.0327    6.8281 C.3       1 <0>        -0.1851
     30 C18        -9.5021    0.6672    8.7972 C.3       1 <0>        -0.1376
     31 C19        -8.6955    1.1509    6.4825 C.3       1 <0>        -0.1821
     32 C20        -1.3259    1.2269    0.3812 C.3       1 <0>        -0.1807
     33 C21        -1.1949    0.0703   -2.2621 C.3       1 <0>        -0.1051
     34 O7          0.1635   -2.3918   -2.5359 O.3       1 <0>        -0.3099
     35 C22         0.8531   -3.6368   -2.6634 C.3       1 <0>         0.0236
     36 H2          0.5010   -3.1751    2.7787 H         1 <0>         0.1148
     37 H3          2.0066   -3.3530    1.8461 H         1 <0>         0.0548
     38 H4          1.7511   -1.9104    2.8569 H         1 <0>         0.1136
     39 H5          1.2001   -3.4353   -0.3685 H         1 <0>         0.1347
     40 H6         -2.1862    0.7260    3.5148 H         1 <0>         0.4285
     41 H7         -2.1089   -3.2701    3.3900 H         1 <0>         0.3585
     42 H8         -4.1793   -0.5343    3.8651 H         1 <0>         0.3950
     43 H9         -4.2665   -3.2054    2.9518 H         1 <0>         0.0663
     44 H10        -3.8859   -3.2193    4.6905 H         1 <0>         0.0658
     45 H11        -5.9152   -1.8690    5.1455 H         1 <0>         0.0656
     46 H12        -6.2958   -1.8551    3.4068 H         1 <0>         0.0698
     47 H13        -6.4478   -4.3300    3.4203 H         1 <0>         0.0829
     48 H14        -6.0672   -4.3439    5.1590 H         1 <0>         0.0654
     49 H15        -6.5652   -3.2853    7.3376 H         1 <0>         0.0354
     50 H16        -8.1948   -3.2913    8.0535 H         1 <0>         0.0627
     51 H17        -7.6594   -4.6590    7.0480 H         1 <0>         0.0999
     52 H18       -11.4559   -0.6724    7.4486 H         1 <0>         0.0578
     53 H19       -11.3911    1.0067    6.8615 H         1 <0>         0.0630
     54 H20       -10.8813   -0.3277    5.7996 H         1 <0>         0.0897
     55 H21        -8.4825    0.7587    9.1716 H         1 <0>         0.0633
     56 H22        -9.9903    1.6412    8.8306 H         1 <0>         0.0748
     57 H23       -10.0551   -0.0379    9.4178 H         1 <0>         0.0649
     58 H24        -8.6739    0.7905    5.4540 H         1 <0>         0.0890
     59 H25        -9.1837    2.1249    6.5159 H         1 <0>         0.0632
     60 H26        -7.6760    1.2425    6.8569 H         1 <0>         0.0547
     61 H27        -2.3499    1.0375    0.7031 H         1 <0>         0.0842
     62 H28        -0.8047    1.8016    1.1468 H         1 <0>         0.1091
     63 H29        -1.3366    1.7904   -0.5518 H         1 <0>         0.0902
     64 H30        -2.2275   -0.2630   -2.3662 H         1 <0>         0.0682
     65 H31        -1.1761    1.1462   -2.0884 H         1 <0>         0.0700
     66 H32        -0.6450   -0.1601   -3.1746 H         1 <0>         0.0686
     67 H33         1.8882   -3.5131   -2.3451 H         1 <0>         0.0584
     68 H34         0.3680   -4.3866   -2.0385 H         1 <0>         0.0602
     69 H35         0.8292   -3.9605   -3.7040 H         1 <0>         0.1026
@<TRIPOS>BOND
     1    1    2 1
     2    1   36 1
     3    1   37 1
     4    1   38 1
     5    2    7 ar
     6    2    3 ar
     7    3    4 ar
     8    3   39 1
     9    4    5 ar
    10    4   34 1
    11    5    6 ar
    12    5   33 1
    13    6    7 ar
    14    6   32 1
    15    7    8 1
    16    8    9 2
    17    8   10 2
    18    8   11 1
    19   11   12 1
    20   11   40 1
    21   12   13 2
    22   12   14 1
    23   13   41 1
    24   14   15 1
    25   14   42 1
    26   15   16 1
    27   15   43 1
    28   15   44 1
    29   16   17 1
    30   16   45 1
    31   16   46 1
    32   17   18 1
    33   17   47 1
    34   17   48 1
    35   18   19 1
    36   18   20 1
    37   18   23 1
    38   20   21 2
    39   20   22 1
    40   23   24 1
    41   23   25 am
    42   24   49 1
    43   24   50 1
    44   24   51 1
    45   25   26 2
    46   25   27 1
    47   27   28 1
    48   28   29 1
    49   28   30 1
    50   28   31 1
    51   29   52 1
    52   29   53 1
    53   29   54 1
    54   30   55 1
    55   30   56 1
    56   30   57 1
    57   31   58 1
    58   31   59 1
    59   31   60 1
    60   32   61 1
    61   32   62 1
    62   32   63 1
    63   33   64 1
    64   33   65 1
    65   33   66 1
    66   34   35 1
    67   35   67 1
    68   35   68 1
    69   35   69 1
@<TRIPOS>MOLECULE
ZINC12604450
   61    63     0     0     0
SMALL
USER_CHARGES
2-[[3-(difluoromethoxy)-4-methoxy-phenyl]-(4,4-dimethyl-2,6-dioxo-cyclohexyl)methyl]-5,5-dimethyl-cyclohexane-1,3-dione
@<TRIPOS>ATOM
      1 C1         -0.7325   -0.5545    0.7447 C.3       1 <0>        -0.1379
      2 C2         -0.4598    0.9486    0.6595 C.3       1 <0>        -0.0368
      3 C3         -1.2440    1.6721    1.7577 C.3       1 <0>        -0.1910
      4 C4         -2.7225    1.4455    1.5394 C.2       1 <0>         0.3953
      5 O1         -3.4169    0.9880    2.4150 O.3       1 <0>        -0.5234
      6 C5         -3.3085    1.8095    0.1902 C.2       1 <0>        -0.5644
      7 C6         -2.3851    1.2476   -0.8717 C.2       1 <0>         0.3950
      8 O2         -2.8244    0.6398   -1.8183 O.2       1 <0>        -0.4753
      9 C7         -0.8977    1.4692   -0.7122 C.3       1 <0>        -0.1905
     10 C8         -3.3946    3.3308    0.0523 C.3       1 <0>         0.1426
     11 C9         -4.1716    3.8972    1.2127 C.ar      1 <0>         0.0087
     12 C10        -5.4825    3.5096    1.4199 C.ar      1 <0>        -0.0232
     13 C11        -6.1976    4.0220    2.4863 C.ar      1 <0>        -0.1883
     14 C12        -5.6045    4.9347    3.3437 C.ar      1 <0>         0.0711
     15 C13        -4.2870    5.3291    3.1318 C.ar      1 <0>         0.0474
     16 C14        -3.5739    4.8074    2.0644 C.ar      1 <0>        -0.1840
     17 O3         -3.7003    6.2243    3.9708 O.3       1 <0>        -0.3192
     18 C15        -2.3452    6.5827    3.6925 C.3       1 <0>         0.4064
     19 F1         -1.5410    5.4390    3.7411 F         1 <0>        -0.2036
     20 F2         -2.2664    7.1544    2.4181 F         1 <0>        -0.2038
     21 O4         -6.3086    5.4443    4.3897 O.3       1 <0>        -0.3230
     22 C16        -7.6558    4.9941    4.5456 C.3       1 <0>         0.0306
     23 C17        -4.1026    3.6850   -1.2569 C.2       1 <0>        -0.5639
     24 C18        -3.2206    3.3213   -2.4342 C.2       1 <0>         0.3934
     25 O5         -3.4770    2.3695   -3.1317 O.3       1 <0>        -0.4764
     26 C19        -2.0101    4.1876   -2.7098 C.3       1 <0>        -0.1913
     27 C20        -2.4593    5.6447   -2.8494 C.3       1 <0>        -0.0361
     28 C21        -3.1705    6.0884   -1.5681 C.3       1 <0>        -0.1910
     29 C22        -4.3524    5.1783   -1.3198 C.2       1 <0>         0.3959
     30 O6         -5.4635    5.6287   -1.1753 O.2       1 <0>        -0.5227
     31 C23        -3.4189    5.7706   -4.0344 C.3       1 <0>        -0.1379
     32 C24        -1.2368    6.5333   -3.0872 C.3       1 <0>        -0.1364
     33 C25         1.0365    1.2062    0.8481 C.3       1 <0>        -0.1364
     34 H1         -0.4180   -0.9289    1.7301 H         1 <0>         0.0427
     35 H2         -0.1675   -1.0748   -0.0427 H         1 <0>         0.0437
     36 H3         -1.8080   -0.7403    0.6080 H         1 <0>         0.0661
     37 H4         -0.9496    1.2753    2.7405 H         1 <0>         0.0403
     38 H5         -1.0243    2.7491    1.7163 H         1 <0>         0.0642
     39 H6         -0.6730    2.5435   -0.7855 H         1 <0>         0.0626
     40 H7         -0.3554    0.9266   -1.5006 H         1 <0>         0.0408
     41 H8         -2.3839    3.7648    0.0602 H         1 <0>        -0.0687
     42 H9         -5.9474    2.8019    0.7496 H         1 <0>         0.1519
     43 H10        -7.2202    3.7145    2.6483 H         1 <0>         0.1218
     44 H11        -2.5511    5.1116    1.8980 H         1 <0>         0.1152
     45 H12        -1.9767    7.3089    4.4320 H         1 <0>         0.1677
     46 H13        -8.1059    5.4812    5.4232 H         1 <0>         0.0845
     47 H14        -7.6638    3.9033    4.6873 H         1 <0>         0.0505
     48 H15        -8.2347    5.2513    3.6463 H         1 <0>         0.0504
     49 H16        -1.2976    4.0979   -1.8765 H         1 <0>         0.0630
     50 H17        -1.5277    3.8578   -3.6418 H         1 <0>         0.0409
     51 H18        -2.4715    6.0277   -0.7209 H         1 <0>         0.0645
     52 H19        -3.5188    7.1255   -1.6824 H         1 <0>         0.0404
     53 H20        -3.7419    6.8173   -4.1350 H         1 <0>         0.0429
     54 H21        -4.2972    5.1306   -3.8645 H         1 <0>         0.0660
     55 H22        -2.9075    5.4545   -4.9555 H         1 <0>         0.0437
     56 H23        -1.5586    7.5804   -3.1876 H         1 <0>         0.0451
     57 H24        -0.7269    6.2164   -4.0089 H         1 <0>         0.0452
     58 H25        -0.5460    6.4420   -2.2360 H         1 <0>         0.0472
     59 H26         1.2331    2.2868    0.7869 H         1 <0>         0.0471
     60 H27         1.6003    0.6857    0.0600 H         1 <0>         0.0453
     61 H28         1.3518    0.8313    1.8330 H         1 <0>         0.0450
@<TRIPOS>BOND
     1    1    2 1
     2    1   34 1
     3    1   35 1
     4    1   36 1
     5    2    9 1
     6    2    3 1
     7    2   33 1
     8    3   37 1
     9    3   38 1
    10    3    4 1
    11    4    6 2
    12    4    5 1
    13    6   10 1
    14    6    7 1
    15    7    9 1
    16    7    8 2
    17    9   39 1
    18    9   40 1
    19   10   11 1
    20   10   23 1
    21   10   41 1
    22   11   16 ar
    23   11   12 ar
    24   12   13 ar
    25   12   42 1
    26   13   14 ar
    27   13   43 1
    28   14   15 ar
    29   14   21 1
    30   15   16 ar
    31   15   17 1
    32   16   44 1
    33   17   18 1
    34   18   19 1
    35   18   20 1
    36   18   45 1
    37   21   22 1
    38   22   46 1
    39   22   47 1
    40   22   48 1
    41   23   29 1
    42   23   24 2
    43   24   25 1
    44   24   26 1
    45   26   27 1
    46   26   49 1
    47   26   50 1
    48   27   28 1
    49   27   31 1
    50   27   32 1
    51   28   29 1
    52   28   51 1
    53   28   52 1
    54   29   30 2
    55   31   53 1
    56   31   54 1
    57   31   55 1
    58   32   56 1
    59   32   57 1
    60   32   58 1
    61   33   59 1
    62   33   60 1
    63   33   61 1
@<TRIPOS>MOLECULE
ZINC13276050
   45    49     0     0     0
SMALL
USER_CHARGES

@<TRIPOS>ATOM
      1 C1         -0.0167    1.3780    0.0096 C.ar      1 <0>        -0.1165
      2 C2          1.1659    2.0892    0.0021 C.ar      1 <0>        -0.1159
      3 C3          2.3880    1.4121   -0.0131 C.ar      1 <0>        -0.1100
      4 C4          2.4067    0.0160   -0.0207 C.ar      1 <0>        -0.1186
      5 C5          1.2127   -0.6881   -0.0131 C.ar      1 <0>         0.1604
      6 C6          0.0021   -0.0041    0.0020 C.ar      1 <0>        -0.1651
      7 N1          1.2256   -2.0859   -0.0207 N.am      1 <0>        -0.5484
      8 C7          0.0465   -2.9596   -0.0200 C.3       1 <0>         0.2531
      9 H1         -0.5560   -2.7766   -0.9098 H         1 <0>         0.0841
     10 C8          0.5712   -4.3765   -0.0306 C.2       1 <0>        -0.4872
     11 C9          1.9251   -4.2916   -0.0366 C.2       1 <0>         0.2984
     12 C10         2.3209   -2.8668   -0.0358 C.2       1 <0>         0.4962
     13 O1          3.4662   -2.4613   -0.0447 O.2       1 <0>        -0.4895
     14 O2          2.7763   -5.3416   -0.0467 O.3       1 <0>        -0.5936
     15 C11        -0.2002   -5.5621   -0.0337 C.2       1 <0>         0.4504
     16 O3          0.3500   -6.6441   -0.0425 O.2       1 <0>        -0.5086
     17 C12        -1.7050   -5.4821   -0.0260 C.3       1 <0>        -0.2011
     18 C13        -2.4582   -6.4309    0.9085 C.3       1 <0>        -0.1582
     19 C14        -2.4786   -6.6695   -0.6027 C.3       1 <0>        -0.1641
     20 C15        -0.7754   -2.7195    1.2200 C.ar      1 <0>        -0.0378
     21 C16        -2.1561   -2.7387    1.1468 C.ar      1 <0>        -0.0899
     22 C17        -2.9143   -2.5187    2.2852 C.ar      1 <0>         0.0437
     23 C18        -2.2825   -2.2784    3.5027 C.ar      1 <0>         0.0253
     24 C19        -0.8982   -2.2598    3.5691 C.ar      1 <0>        -0.0071
     25 C20        -0.1475   -2.4863    2.4290 C.ar      1 <0>        -0.0725
     26 Cl1        -0.1060   -1.9607    5.0846 Cl        1 <0>        -0.0589
     27 O4         -3.2374   -2.0946    4.4610 O.3       1 <0>        -0.3021
     28 C21        -4.4547   -1.8197    3.7428 C.3       1 <0>         0.2129
     29 O5         -4.2649   -2.4857    2.4805 O.3       1 <0>        -0.3064
     30 C22         3.6542    2.1697   -0.0216 C.2       1 <0>         0.5221
     31 O6          3.6352    3.3924   -0.0153 O.co2     1 <0>        -0.6969
     32 O7          4.7226    1.5748   -0.0350 O.co2     1 <0>        -0.6800
     33 H2         -0.9602    1.9032    0.0260 H         1 <0>         0.1121
     34 H3          1.1467    3.1690    0.0077 H         1 <0>         0.1213
     35 H4          3.3480   -0.5134   -0.0329 H         1 <0>         0.1579
     36 H5         -0.9270   -0.5547    0.0079 H         1 <0>         0.1139
     37 H6         -2.1236   -4.4871   -0.1778 H         1 <0>         0.1125
     38 H7         -1.8653   -7.1130    1.5177 H         1 <0>         0.0937
     39 H8         -3.3726   -6.0602    1.3718 H         1 <0>         0.0889
     40 H9         -3.4063   -6.4558   -1.1335 H         1 <0>         0.0887
     41 H10        -1.8991   -7.5086   -0.9876 H         1 <0>         0.0975
     42 H11        -2.6437   -2.9249    0.2013 H         1 <0>         0.1430
     43 H12         0.9311   -2.4762    2.4830 H         1 <0>         0.1439
     44 H13        -5.3130   -2.2359    4.2703 H         1 <0>         0.1270
     45 H14        -4.5782   -0.7468    3.5950 H         1 <0>         0.0813
@<TRIPOS>BOND
     1    1    6 ar
     2    1    2 ar
     3    1   33 1
     4    2    3 ar
     5    2   34 1
     6    3    4 ar
     7    3   30 1
     8    4    5 ar
     9    4   35 1
    10    5    6 ar
    11    5    7 1
    12    6   36 1
    13    7   12 am
    14    7    8 1
    15    8    9 1
    16    8   10 1
    17    8   20 1
    18   10   11 2
    19   10   15 1
    20   11   12 1
    21   11   14 1
    22   12   13 2
    23   15   16 2
    24   15   17 1
    25   17   19 1
    26   17   18 1
    27   17   37 1
    28   18   19 1
    29   18   38 1
    30   18   39 1
    31   19   40 1
    32   19   41 1
    33   20   25 ar
    34   20   21 ar
    35   21   22 ar
    36   21   42 1
    37   22   29 1
    38   22   23 ar
    39   23   24 ar
    40   23   27 1
    41   24   25 ar
    42   24   26 1
    43   25   43 1
    44   27   28 1
    45   28   29 1
    46   28   44 1
    47   28   45 1
    48   30   31 2
    49   30   32 1
@<TRIPOS>MOLECULE
ZINC13213833
   59    62     0     0     0
SMALL
USER_CHARGES

@<TRIPOS>ATOM
      1 C1         -0.2455    1.1907   -0.6970 C.3       1 <0>        -0.1041
      2 C2         -0.1804   -0.3046   -0.5218 C.ar      1 <0>        -0.1008
      3 C3         -0.2311   -1.1331   -1.6275 C.ar      1 <0>        -0.1224
      4 C4         -0.1714   -2.5045   -1.4668 C.ar      1 <0>        -0.0846
      5 C5         -0.0604   -3.0480   -0.2003 C.ar      1 <0>        -0.0618
      6 C6         -0.0087   -2.2198    0.9050 C.ar      1 <0>        -0.0727
      7 C7         -0.0641   -0.8477    0.7439 C.ar      1 <0>        -0.1219
      8 C8          0.1119   -2.8121    2.2854 C.3       1 <0>        -0.1136
      9 C9          0.0038   -4.5434   -0.0250 C.3       1 <0>         0.2629
     10 H1          0.5989   -4.7922    0.8536 H         1 <0>         0.0751
     11 C10        -1.3897   -5.1105    0.1136 C.2       1 <0>        -0.5049
     12 C11        -1.5648   -5.9720   -0.9159 C.2       1 <0>         0.2653
     13 C12        -0.3381   -6.0014   -1.7383 C.2       1 <0>         0.4993
     14 O1         -0.1834   -6.6783   -2.7356 O.2       1 <0>        -0.4989
     15 N1          0.5835   -5.1672   -1.2203 N.am      1 <0>        -0.5512
     16 C13         1.8643   -4.9354   -1.7302 C.ar      1 <0>         0.1647
     17 C14         2.7182   -4.0460   -1.0871 C.ar      1 <0>        -0.1618
     18 C15         3.9857   -3.8130   -1.5867 C.ar      1 <0>        -0.1170
     19 C16         4.4133   -4.4615   -2.7272 C.ar      1 <0>        -0.1184
     20 C17         3.5638   -5.3576   -3.3812 C.ar      1 <0>        -0.1118
     21 C18         2.2852   -5.5965   -2.8735 C.ar      1 <0>        -0.1213
     22 C19         4.0179   -6.0524   -4.6012 C.2       1 <0>         0.5223
     23 O2          5.1396   -5.8443   -5.0416 O.co2     1 <0>        -0.6978
     24 O3          3.2726   -6.8362   -5.1718 O.co2     1 <0>        -0.6809
     25 O4         -2.6854   -6.6921   -1.1536 O.3       1 <0>        -0.6595
     26 C20        -2.3640   -4.7901    1.1611 C.2       1 <0>         0.5210
     27 O5         -2.9721   -3.7364    1.1249 O.2       1 <0>        -0.4780
     28 C21        -2.6075   -5.7454    2.2597 C.ar      1 <0>        -0.1348
     29 C22        -1.9835   -6.9964    2.2515 C.ar      1 <0>        -0.0377
     30 C23        -2.2119   -7.8867    3.2775 C.ar      1 <0>        -0.1902
     31 C24        -3.0619   -7.5450    4.3215 C.ar      1 <0>         0.1130
     32 C25        -3.6880   -6.2988    4.3357 C.ar      1 <0>         0.0732
     33 C26        -3.4583   -5.3990    3.3137 C.ar      1 <0>        -0.1246
     34 O6         -4.5204   -5.9678    5.3589 O.3       1 <0>        -0.3121
     35 C27        -5.1276   -4.6751    5.3090 C.3       1 <0>         0.0266
     36 O7         -3.2841   -8.4263    5.3302 O.3       1 <0>        -0.3095
     37 C28        -2.6111   -9.6845    5.2525 C.3       1 <0>         0.0258
     38 H2          0.7628    1.5866   -0.8181 H         1 <0>         0.0621
     39 H3         -0.8374    1.4275   -1.5811 H         1 <0>         0.0596
     40 H4         -0.7091    1.6396    0.1815 H         1 <0>         0.0582
     41 H5         -0.3179   -0.7086   -2.6167 H         1 <0>         0.1130
     42 H6         -0.2118   -3.1517   -2.3305 H         1 <0>         0.1153
     43 H7         -0.0200   -0.2004    1.6073 H         1 <0>         0.1117
     44 H8          1.1634   -2.8653    2.5674 H         1 <0>         0.0650
     45 H9         -0.4241   -2.1851    2.9979 H         1 <0>         0.0606
     46 H10        -0.3165   -3.8144    2.2894 H         1 <0>         0.0679
     47 H11         2.3896   -3.5352   -0.1940 H         1 <0>         0.1137
     48 H12         4.6437   -3.1204   -1.0828 H         1 <0>         0.1111
     49 H13         5.4043   -4.2763   -3.1144 H         1 <0>         0.1202
     50 H14         1.6251   -6.2907   -3.3721 H         1 <0>         0.1568
     51 H15        -1.3227   -7.2650    1.4406 H         1 <0>         0.1424
     52 H16        -1.7292   -8.8528    3.2700 H         1 <0>         0.1359
     53 H17        -3.9384   -4.4317    3.3262 H         1 <0>         0.1409
     54 H18        -4.3520   -3.9093    5.3029 H         1 <0>         0.0537
     55 H19        -5.7286   -4.5908    4.4035 H         1 <0>         0.0545
     56 H20        -5.7654   -4.5393    6.1824 H         1 <0>         0.0943
     57 H21        -1.5337   -9.5201    5.2392 H         1 <0>         0.0551
     58 H22        -2.8754  -10.2920    6.1181 H         1 <0>         0.0949
     59 H23        -2.9110  -10.2012    4.3408 H         1 <0>         0.0559
@<TRIPOS>BOND
     1    1    2 1
     2    1   38 1
     3    1   39 1
     4    1   40 1
     5    2    7 ar
     6    2    3 ar
     7    3    4 ar
     8    3   41 1
     9    4    5 ar
    10    4   42 1
    11    5    6 ar
    12    5    9 1
    13    6    7 ar
    14    6    8 1
    15    7   43 1
    16    8   44 1
    17    8   45 1
    18    8   46 1
    19    9   10 1
    20    9   15 1
    21    9   11 1
    22   11   12 2
    23   11   26 1
    24   12   13 1
    25   12   25 1
    26   13   14 2
    27   13   15 am
    28   15   16 1
    29   16   21 ar
    30   16   17 ar
    31   17   18 ar
    32   17   47 1
    33   18   19 ar
    34   18   48 1
    35   19   20 ar
    36   19   49 1
    37   20   21 ar
    38   20   22 1
    39   21   50 1
    40   22   23 2
    41   22   24 1
    42   26   27 2
    43   26   28 1
    44   28   33 ar
    45   28   29 ar
    46   29   30 ar
    47   29   51 1
    48   30   31 ar
    49   30   52 1
    50   31   32 ar
    51   31   36 1
    52   32   33 ar
    53   32   34 1
    54   33   53 1
    55   34   35 1
    56   35   54 1
    57   35   55 1
    58   35   56 1
    59   36   37 1
    60   37   57 1
    61   37   58 1
    62   37   59 1
@<TRIPOS>MOLECULE
ZINC55612175
   40    41     0     0     0
SMALL
USER_CHARGES

@<TRIPOS>ATOM
      1 C1          0.6297    1.9093   -0.7772 C.3       1 <0>        -0.1450
      2 C2          0.5849    0.4024   -0.5161 C.3       1 <0>        -0.0716
      3 C3          1.6587    0.0301    0.5083 C.3       1 <0>        -0.1362
      4 C4         -0.7724    0.0255    0.0194 C.ar      1 <0>         0.0024
      5 C5         -1.2735    0.6669    1.1389 C.ar      1 <0>        -0.1522
      6 C6         -2.5145    0.3270    1.6348 C.ar      1 <0>        -0.0277
      7 C7         -3.2667   -0.6675    1.0040 C.ar      1 <0>        -0.1253
      8 C8         -2.7547   -1.3103   -0.1257 C.ar      1 <0>         0.0277
      9 C9         -1.5140   -0.9562   -0.6136 C.ar      1 <0>        -0.6930
     10 S1         -0.8689   -1.7609   -2.0422 S.o2      1 <0>         2.6894
     11 O1          0.4369   -2.2065   -1.7025 O.2       1 <0>        -0.9598
     12 O2         -1.8808   -2.6468   -2.5010 O.2       1 <0>        -0.9427
     13 N1         -0.6848   -0.6053   -3.2140 N.pl3     1 <0>        -1.0509
     14 C10        -1.8115    0.0004   -3.7831 C.ar      1 <0>         0.1130
     15 C11        -2.9665    0.1494   -3.0371 C.ar      1 <0>        -0.0868
     16 C12        -4.0903    0.7550   -3.6089 C.ar      1 <0>        -0.1299
     17 C13        -4.0378    1.2066   -4.9336 C.ar      1 <0>         0.1377
     18 C14        -2.8782    1.0522   -5.6691 C.ar      1 <0>        -0.1855
     19 C15        -1.7661    0.4577   -5.0986 C.ar      1 <0>         0.0851
     20 F1         -0.6338    0.3155   -5.8216 F         1 <0>        -0.1403
     21 F2         -5.1198    1.7920   -5.4919 F         1 <0>        -0.1130
     22 C16        -5.3235    0.9167   -2.8215 C.2       1 <0>         0.5109
     23 O3         -5.3366    0.6141   -1.6362 O.co2     1 <0>        -0.6370
     24 O4         -6.3354    1.3537   -3.3524 O.co2     1 <0>        -0.6802
     25 C17        -4.5951   -1.0372    1.5288 C.2       1 <0>         0.5306
     26 O5         -5.0403   -0.4728    2.5182 O.co2     1 <0>        -0.6967
     27 O6         -5.2509   -1.9079    0.9745 O.co2     1 <0>        -0.6704
     28 H1          1.6346    2.1943   -1.0886 H         1 <0>         0.0565
     29 H2         -0.0803    2.1629   -1.5644 H         1 <0>         0.0607
     30 H3          0.3667    2.4441    0.1354 H         1 <0>         0.0624
     31 H4          0.7697   -0.1334   -1.4472 H         1 <0>         0.0662
     32 H5          1.6829   -1.0526    0.6321 H         1 <0>         0.0642
     33 H6          2.6307    0.3777    0.1583 H         1 <0>         0.0550
     34 H7          1.4274    0.5000    1.4642 H         1 <0>         0.0576
     35 H8         -0.6910    1.4353    1.6253 H         1 <0>         0.1203
     36 H9         -2.9039    0.8278    2.5088 H         1 <0>         0.1323
     37 H10        -3.3306   -2.0798   -0.6183 H         1 <0>         0.1478
     38 H11         0.2037   -0.3480   -3.5060 H         1 <0>         0.4209
     39 H12        -3.0008   -0.2012   -2.0162 H         1 <0>         0.1602
     40 H13        -2.8382    1.4002   -6.6907 H         1 <0>         0.1435
@<TRIPOS>BOND
     1    1    2 1
     2    1   28 1
     3    1   29 1
     4    1   30 1
     5    2    3 1
     6    2    4 1
     7    2   31 1
     8    3   32 1
     9    3   33 1
    10    3   34 1
    11    4    9 ar
    12    4    5 ar
    13    5    6 ar
    14    5   35 1
    15    6    7 ar
    16    6   36 1
    17    7    8 ar
    18    7   25 1
    19    8    9 ar
    20    8   37 1
    21    9   10 1
    22   10   11 2
    23   10   12 2
    24   10   13 1
    25   13   14 1
    26   13   38 1
    27   14   19 ar
    28   14   15 ar
    29   15   16 ar
    30   15   39 1
    31   16   17 ar
    32   16   22 1
    33   17   18 ar
    34   17   21 1
    35   18   19 ar
    36   18   40 1
    37   19   20 1
    38   22   23 2
    39   22   24 1
    40   25   26 2
    41   25   27 1
@<TRIPOS>MOLECULE
ZINC60367199
   34    35     0     0     0
SMALL
USER_CHARGES

@<TRIPOS>ATOM
      1 C1         -0.0173    1.4248    0.0099 C.3       1 <0>         0.0354
      2 O1          0.0021   -0.0041    0.0020 O.3       1 <0>        -0.3524
      3 C2         -1.1898   -0.6320    0.0100 C.2       1 <0>         0.5154
      4 O2         -2.2175    0.0157    0.0233 O.2       1 <0>        -0.5009
      5 C3         -1.2471   -2.1075    0.0026 C.ar      1 <0>        -0.1632
      6 C4         -0.0671   -2.8550   -0.0069 C.ar      1 <0>        -0.0185
      7 C5         -0.1272   -4.2323   -0.0138 C.ar      1 <0>        -0.1536
      8 C6         -1.3545   -4.8750   -0.0113 C.ar      1 <0>         0.1029
      9 C7         -2.5280   -4.1394   -0.0019 C.ar      1 <0>        -0.6134
     10 C8         -2.4811   -2.7612    0.0109 C.ar      1 <0>         0.0473
     11 S1         -4.0840   -4.9662    0.0012 S.o2      1 <0>         2.5582
     12 O3         -4.0174   -5.9532    1.0213 O.2       1 <0>        -1.0182
     13 O4         -5.0815   -3.9544   -0.0159 O.2       1 <0>        -1.0320
     14 N1         -4.2094   -5.7788   -1.4362 N.2       1 <0>        -0.9715
     15 C9         -5.3453   -6.5275   -1.7136 C.ar      1 <0>         0.3204
     16 C10        -6.3803   -6.5924   -0.7905 C.ar      1 <0>        -0.3019
     17 C11        -7.5103   -7.3381   -1.0680 C.ar      1 <0>         0.1117
     18 C12        -7.6203   -8.0282   -2.2714 C.ar      1 <0>        -0.0722
     19 C13        -6.6034   -7.9754   -3.1981 C.ar      1 <0>        -0.0562
     20 C14        -5.4552   -7.2185   -2.9326 C.ar      1 <0>        -0.1753
     21 C15        -4.3693   -7.1525   -3.9196 C.2       1 <0>         0.5317
     22 O5         -4.4687   -7.7555   -4.9799 O.co2     1 <0>        -0.7326
     23 O6         -3.3653   -6.4944   -3.6817 O.co2     1 <0>        -0.6430
     24 F1         -8.7299   -8.7539   -2.5313 F         1 <0>        -0.1648
     25 F2         -8.5139   -7.3977   -0.1656 F         1 <0>        -0.1571
     26 Cl1        -1.4218   -6.6097   -0.0206 Cl        1 <0>        -0.0068
     27 H1          1.0053    1.8021    0.0021 H         1 <0>         0.0993
     28 H2         -0.5445    1.7859   -0.8732 H         1 <0>         0.0605
     29 H3         -0.5275    1.7763    0.9067 H         1 <0>         0.0587
     30 H4          0.8902   -2.3551   -0.0092 H         1 <0>         0.1461
     31 H5          0.7844   -4.8114   -0.0215 H         1 <0>         0.1455
     32 H6         -3.3967   -2.1887    0.0231 H         1 <0>         0.1591
     33 H7         -6.3021   -6.0598    0.1458 H         1 <0>         0.1102
     34 H8         -6.6930   -8.5130   -4.1305 H         1 <0>         0.1312
@<TRIPOS>BOND
     1    1    2 1
     2    1   27 1
     3    1   28 1
     4    1   29 1
     5    2    3 1
     6    3    4 2
     7    3    5 1
     8    5   10 ar
     9    5    6 ar
    10    6    7 ar
    11    6   30 1
    12    7    8 ar
    13    7   31 1
    14    8    9 ar
    15    8   26 1
    16    9   10 ar
    17    9   11 1
    18   10   32 1
    19   11   12 2
    20   11   13 2
    21   11   14 1
    22   14   15 1
    23   15   20 ar
    24   15   16 ar
    25   16   17 ar
    26   16   33 1
    27   17   18 ar
    28   17   25 1
    29   18   19 ar
    30   18   24 1
    31   19   20 ar
    32   19   34 1
    33   20   21 1
    34   21   22 2
    35   21   23 1
@<TRIPOS>MOLECULE
ZINC04933208
   30    31     0     0     0
SMALL
USER_CHARGES
N-[1-(4-bromophenyl)ethylideneamino]-2-chloro-aniline
@<TRIPOS>ATOM
      1 C1          2.4137    1.3255   -0.0139 C.3       1 <0>        -0.1557
      2 C2          1.0985    2.0612    0.0026 C.2       1 <0>         0.1168
      3 N1         -0.0169    1.3968    0.0097 N.2       1 <0>        -0.2280
      4 N2          0.0021   -0.0041    0.0020 N.pl3     1 <0>        -0.5768
      5 C3         -1.1971   -0.7184    0.0096 C.ar      1 <0>         0.2249
      6 C4         -2.4108   -0.0418    0.0307 C.ar      1 <0>        -0.1494
      7 C5         -3.5953   -0.7517    0.0338 C.ar      1 <0>        -0.0756
      8 C6         -3.5753   -2.1346    0.0257 C.ar      1 <0>        -0.1513
      9 C7         -2.3699   -2.8122    0.0101 C.ar      1 <0>        -0.0687
     10 C8         -1.1803   -2.1089    0.0020 C.ar      1 <0>        -0.1020
     11 Cl1         0.3326   -2.9600   -0.0170 Cl        1 <0>        -0.0724
     12 C9          1.0785    3.5355    0.0107 C.ar      1 <0>        -0.0236
     13 C10         2.2770    4.2535    0.0090 C.ar      1 <0>        -0.0911
     14 C11         2.2511    5.6323    0.0113 C.ar      1 <0>        -0.0912
     15 C12         1.0410    6.3051    0.0265 C.ar      1 <0>        -0.0806
     16 C13        -0.1505    5.5996    0.0340 C.ar      1 <0>        -0.0922
     17 C14        -0.1390    4.2206    0.0261 C.ar      1 <0>        -0.0787
     18 Br1         1.0153    8.1959    0.0363 Br        1 <0>        -0.0452
     19 H1          2.7209    1.1537   -1.0454 H         1 <0>         0.0880
     20 H2          3.1701    1.9221    0.4960 H         1 <0>         0.0905
     21 H3          2.3012    0.3687    0.4959 H         1 <0>         0.0686
     22 H4          0.8486   -0.4776   -0.0086 H         1 <0>         0.3946
     23 H5         -2.4277    1.0380    0.0411 H         1 <0>         0.1408
     24 H6         -4.5387   -0.2262    0.0463 H         1 <0>         0.1321
     25 H7         -4.5035   -2.6868    0.0320 H         1 <0>         0.1322
     26 H8         -2.3582   -3.8921    0.0045 H         1 <0>         0.1365
     27 H9          3.2216    3.7299    0.0017 H         1 <0>         0.1394
     28 H10         3.1768    6.1886    0.0051 H         1 <0>         0.1387
     29 H11        -1.0909    6.1305    0.0459 H         1 <0>         0.1378
     30 H12        -1.0690    3.6716    0.0313 H         1 <0>         0.1417
@<TRIPOS>BOND
     1    1    2 1
     2    1   19 1
     3    1   20 1
     4    1   21 1
     5    2    3 2
     6    2   12 1
     7    3    4 1
     8    4    5 1
     9    4   22 1
    10    5   10 ar
    11    5    6 ar
    12    6    7 ar
    13    6   23 1
    14    7    8 ar
    15    7   24 1
    16    8    9 ar
    17    8   25 1
    18    9   10 ar
    19    9   26 1
    20   10   11 1
    21   12   17 ar
    22   12   13 ar
    23   13   14 ar
    24   13   27 1
    25   14   15 ar
    26   14   28 1
    27   15   16 ar
    28   15   18 1
    29   16   17 ar
    30   16   29 1
    31   17   30 1
@<TRIPOS>MOLECULE
ZINC09186493
   54    57     0     0     0
SMALL
USER_CHARGES
2-butylsulfanyl-9-methyl-spiro[3,6-dihydrobenzo[h]quinazoline-5,1'-cyclohexane]-4-one
@<TRIPOS>ATOM
      1 C1          8.6005    5.0595    1.7467 C.3       1 <0>        -0.1558
      2 C2          7.4444    4.1167    1.4066 C.3       1 <0>        -0.1177
      3 C3          7.9916    2.7115    1.1478 C.3       1 <0>        -0.1120
      4 C4          6.8355    1.7687    0.8078 C.3       1 <0>        -0.0980
      5 S1          7.4828    0.1064    0.5015 S.3       1 <0>        -0.0115
      6 C5          5.9822   -0.7453    0.1446 C.2       1 <0>         0.3700
      7 N1          6.0248   -2.0741   -0.1525 N.am      1 <0>        -0.6299
      8 H1          6.9858   -2.6092   -0.1431 H         1 <0>         0.4472
      9 C6          4.8896   -2.7382   -0.4591 C.2       1 <0>         0.5376
     10 O1          4.9198   -3.9238   -0.7471 O.2       1 <0>        -0.5237
     11 C7          3.6763   -2.0377   -0.4390 C.2       1 <0>        -0.2429
     12 C8          3.6840   -0.6964   -0.0874 C.2       1 <0>         0.2352
     13 N2          4.8431   -0.0826    0.1704 N.2       1 <0>        -0.5327
     14 C9          2.4004    0.0392   -0.0371 C.ar      1 <0>        -0.0562
     15 C10         2.3775    1.4314   -0.0213 C.ar      1 <0>        -0.0702
     16 C11         1.1673    2.0953    0.0022 C.ar      1 <0>        -0.0993
     17 C12        -0.0167    1.3791    0.0096 C.ar      1 <0>        -0.0961
     18 C13         0.0021   -0.0041    0.0020 C.ar      1 <0>        -0.1204
     19 C14         1.2055   -0.6793   -0.0138 C.ar      1 <0>        -0.0475
     20 C15         1.2324   -2.1836    0.0218 C.3       1 <0>        -0.0815
     21 C16         2.3907   -2.7219   -0.8164 C.3       1 <0>         0.0214
     22 C17         2.5316   -4.2283   -0.5757 C.3       1 <0>        -0.1198
     23 C18         1.2282   -4.9296   -0.9622 C.3       1 <0>        -0.1237
     24 C19         0.9345   -4.6802   -2.4429 C.3       1 <0>        -0.1199
     25 C20         0.7983   -3.1762   -2.6887 C.3       1 <0>        -0.1193
     26 C21         2.1011   -2.4751   -2.2999 C.3       1 <0>        -0.1032
     27 C22         1.1356    3.6019    0.0198 C.3       1 <0>        -0.1160
     28 H2          8.2071    6.0698    1.9328 H         1 <0>         0.0584
     29 H3          9.3079    5.0907    0.9049 H         1 <0>         0.0561
     30 H4          9.1175    4.6958    2.6469 H         1 <0>         0.0561
     31 H5          6.7370    4.0855    2.2484 H         1 <0>         0.0670
     32 H6          6.9273    4.4804    0.5064 H         1 <0>         0.0670
     33 H7          8.6990    2.7428    0.3060 H         1 <0>         0.0752
     34 H8          8.5088    2.3478    2.0480 H         1 <0>         0.0752
     35 H9          6.1282    1.7374    1.6497 H         1 <0>         0.1041
     36 H10         6.3183    2.1324   -0.0923 H         1 <0>         0.1035
     37 H11         3.3023    1.9893   -0.0281 H         1 <0>         0.1316
     38 H12        -0.9610    1.9031    0.0169 H         1 <0>         0.1257
     39 H13        -0.9261   -0.5562    0.0081 H         1 <0>         0.1283
     40 H14         1.3567   -2.5236    1.0605 H         1 <0>         0.0803
     41 H15         0.2879   -2.5769   -0.3822 H         1 <0>         0.0936
     42 H16         3.3559   -4.6220   -1.1885 H         1 <0>         0.1107
     43 H17         2.7455   -4.4113    0.4877 H         1 <0>         0.0541
     44 H18         1.3271   -6.0107   -0.7850 H         1 <0>         0.0613
     45 H19         0.4032   -4.5321   -0.3527 H         1 <0>         0.0585
     46 H20         1.7591   -5.0785   -3.0524 H         1 <0>         0.0621
     47 H21        -0.0032   -5.1838   -2.7206 H         1 <0>         0.0601
     48 H22         0.5890   -2.9962   -3.7535 H         1 <0>         0.0622
     49 H23        -0.0274   -2.7785   -2.0804 H         1 <0>         0.0653
     50 H24         2.0036   -1.3943   -2.4796 H         1 <0>         0.0593
     51 H25         2.9275   -2.8745   -2.9062 H         1 <0>         0.0624
     52 H26         0.0911    3.9465    0.0375 H         1 <0>         0.0669
     53 H27         1.6345    3.9897   -0.8806 H         1 <0>         0.0701
     54 H28         1.6581    3.9692    0.9154 H         1 <0>         0.0706
@<TRIPOS>BOND
     1    1    2 1
     2    1   28 1
     3    1   29 1
     4    1   30 1
     5    2    3 1
     6    2   31 1
     7    2   32 1
     8    3    4 1
     9    3   33 1
    10    3   34 1
    11    4    5 1
    12    4   35 1
    13    4   36 1
    14    5    6 1
    15    6   13 2
    16    6    7 1
    17    7    8 1
    18    7    9 am
    19    9   10 2
    20    9   11 1
    21   11   21 1
    22   11   12 2
    23   12   13 1
    24   12   14 1
    25   14   19 ar
    26   14   15 ar
    27   15   16 ar
    28   15   37 1
    29   16   17 ar
    30   16   27 1
    31   17   18 ar
    32   17   38 1
    33   18   19 ar
    34   18   39 1
    35   19   20 1
    36   20   21 1
    37   20   40 1
    38   20   41 1
    39   21   26 1
    40   21   22 1
    41   22   23 1
    42   22   42 1
    43   22   43 1
    44   23   24 1
    45   23   44 1
    46   23   45 1
    47   24   25 1
    48   24   46 1
    49   24   47 1
    50   25   26 1
    51   25   48 1
    52   25   49 1
    53   26   50 1
    54   26   51 1
    55   27   52 1
    56   27   53 1
    57   27   54 1
@<TRIPOS>MOLECULE
ZINC36277276
   40    42     0     0     0
SMALL
USER_CHARGES

@<TRIPOS>ATOM
      1 C1         -3.3865    2.5364   -1.8646 C.3       1 <0>        -0.1421
      2 C2         -2.3135    2.0800   -0.8741 C.3       1 <0>        -0.0807
      3 C3         -2.6272    0.6838   -0.4017 C.ar      1 <0>        -0.0745
      4 C4         -3.3304    0.4925    0.7716 C.ar      1 <0>        -0.1175
      5 C5         -3.6186   -0.7882    1.2058 C.ar      1 <0>        -0.1048
      6 C6         -3.2041   -1.8818    0.4674 C.ar      1 <0>        -0.1177
      7 C7         -2.5003   -1.6977   -0.7062 C.ar      1 <0>        -0.0561
      8 C8         -2.2144   -0.4121   -1.1485 C.ar      1 <0>         0.1324
      9 N1         -1.5075   -0.2220   -2.3393 N.pl3     1 <0>        -0.6438
     10 C9         -2.1034   -0.5190   -3.5528 C.ar      1 <0>         0.5072
     11 C10        -1.4371   -0.2216   -4.7737 C.ar      1 <0>        -0.2418
     12 C11        -0.1374    0.3870   -4.9981 C.2       1 <0>        -0.1201
     13 C12         0.2910    0.5715   -6.2555 C.2       1 <0>        -0.1277
     14 S1         -1.0436   -0.0701   -7.2486 S.3       1 <0>         0.1276
     15 C13        -2.1406   -0.5687   -5.9477 C.ar      1 <0>         0.1539
     16 N2         -3.3330   -1.1291   -5.8947 N.ar      1 <0>        -0.5041
     17 C14        -3.9013   -1.3807   -4.7300 C.ar      1 <0>         0.4251
     18 N3         -3.2973   -1.0879   -3.5910 N.ar      1 <0>        -0.5586
     19 Cl1        -5.4719   -2.1194   -4.6932 Cl        1 <0>         0.0416
     20 C15         1.5909    1.1769   -6.7188 C.3       1 <0>        -0.0425
     21 C16         2.6450    0.0767   -6.8579 C.3       1 <0>        -0.1511
     22 C17        -2.0482   -2.8899   -1.5095 C.3       1 <0>        -0.1107
     23 H1         -3.1596    3.5463   -2.2063 H         1 <0>         0.0581
     24 H2         -3.4043    1.8593   -2.7186 H         1 <0>         0.0488
     25 H3         -4.3601    2.5288   -1.3745 H         1 <0>         0.0578
     26 H4         -1.3399    2.0876   -1.3641 H         1 <0>         0.0666
     27 H5         -2.2957    2.7571   -0.0201 H         1 <0>         0.0751
     28 H6         -3.6553    1.3443    1.3507 H         1 <0>         0.1258
     29 H7         -4.1684   -0.9349    2.1238 H         1 <0>         0.1257
     30 H8         -3.4309   -2.8808    0.8094 H         1 <0>         0.1260
     31 H9         -0.5993    0.1180   -2.3152 H         1 <0>         0.4208
     32 H10         0.4767    0.6877   -4.1621 H         1 <0>         0.1375
     33 H11         1.4424    1.6618   -7.6837 H         1 <0>         0.0852
     34 H12         1.9287    1.9137   -5.9900 H         1 <0>         0.0910
     35 H13         3.5853    0.5146   -7.1929 H         1 <0>         0.0676
     36 H14         2.7935   -0.4082   -5.8930 H         1 <0>         0.0591
     37 H15         2.3073   -0.6601   -7.5866 H         1 <0>         0.0604
     38 H16        -2.8569   -3.2146   -2.1643 H         1 <0>         0.0765
     39 H17        -1.1817   -2.6152   -2.1111 H         1 <0>         0.0568
     40 H18        -1.7790   -3.7021   -0.8343 H         1 <0>         0.0670
@<TRIPOS>BOND
     1    1    2 1
     2    1   23 1
     3    1   24 1
     4    1   25 1
     5    2    3 1
     6    2   26 1
     7    2   27 1
     8    3    8 ar
     9    3    4 ar
    10    4    5 ar
    11    4   28 1
    12    5    6 ar
    13    5   29 1
    14    6    7 ar
    15    6   30 1
    16    7    8 ar
    17    7   22 1
    18    8    9 1
    19    9   10 1
    20    9   31 1
    21   10   18 ar
    22   10   11 ar
    23   11   15 ar
    24   11   12 1
    25   12   13 2
    26   12   32 1
    27   13   14 1
    28   13   20 1
    29   14   15 1
    30   15   16 ar
    31   16   17 ar
    32   17   18 ar
    33   17   19 1
    34   20   21 1
    35   20   33 1
    36   20   34 1
    37   21   35 1
    38   21   36 1
    39   21   37 1
    40   22   38 1
    41   22   39 1
    42   22   40 1
@<TRIPOS>MOLECULE
ZINC37215652
   36    37     0     0     0
SMALL
USER_CHARGES

@<TRIPOS>ATOM
      1 C1         -0.0184    1.5028    0.0103 C.3       1 <0>        -0.1185
      2 C2          0.0021   -0.0041    0.0020 C.ar      1 <0>        -0.0402
      3 C3          0.0057   -0.6882   -1.2000 C.ar      1 <0>        -0.1728
      4 C4          0.0240   -2.0707   -1.2121 C.ar      1 <0>        -0.0730
      5 C5          0.0391   -2.7732   -0.0230 C.ar      1 <0>        -0.1996
      6 C6          0.0360   -2.0893    1.1859 C.ar      1 <0>         0.2201
      7 C7          0.0228   -0.7000    1.1944 C.ar      1 <0>        -0.1610
      8 C8          0.0251    0.0464    2.5036 C.3       1 <0>        -0.1076
      9 N1          0.0513   -2.7965    2.3902 N.pl3     1 <0>        -0.7438
     10 C9          0.0706   -4.2614    2.3793 C.3       1 <0>         0.1884
     11 H1          0.6606   -4.6106    1.5319 H         1 <0>         0.1004
     12 C10        -1.3601   -4.7894    2.2568 C.3       1 <0>        -0.1655
     13 C11         0.6841   -4.7652    3.6603 C.ar      1 <0>        -0.0646
     14 C12         0.6439   -3.9836    4.7999 C.ar      1 <0>        -0.0892
     15 C13         1.2061   -4.4444    5.9754 C.ar      1 <0>        -0.0859
     16 C14         1.8103   -5.6885    6.0126 C.ar      1 <0>        -0.0240
     17 C15         1.8512   -6.4719    4.8723 C.ar      1 <0>        -0.0235
     18 C16         1.2822   -6.0118    3.6968 C.ar      1 <0>        -0.0171
     19 Cl1         1.3259   -6.9962    2.2675 Cl        1 <0>        -0.0268
     20 Cl2         2.6090   -8.0331    4.9176 Cl        1 <0>        -0.0202
     21 Cl3         2.5174   -6.2665    7.4890 Cl        1 <0>        -0.0307
     22 H2          1.0042    1.8801    0.0026 H         1 <0>         0.0711
     23 H3         -0.5455    1.8639   -0.8728 H         1 <0>         0.0670
     24 H4         -0.5286    1.8543    0.9071 H         1 <0>         0.0677
     25 H5         -0.0061   -0.1414   -2.1312 H         1 <0>         0.1179
     26 H6          0.0260   -2.6019   -2.1525 H         1 <0>         0.1204
     27 H7          0.0530   -3.8531   -0.0331 H         1 <0>         0.1201
     28 H8         -1.0019    0.2123    2.8290 H         1 <0>         0.0657
     29 H9          0.5541   -0.5398    3.2551 H         1 <0>         0.0551
     30 H10         0.5247    1.0064    2.3736 H         1 <0>         0.0702
     31 H11         0.0491   -2.3178    3.2339 H         1 <0>         0.3974
     32 H12        -1.9501   -4.4402    3.1042 H         1 <0>         0.0634
     33 H13        -1.8038   -4.4250    1.3303 H         1 <0>         0.0722
     34 H14        -1.3457   -5.8793    2.2487 H         1 <0>         0.0694
     35 H15         0.1731   -3.0120    4.7715 H         1 <0>         0.1446
     36 H16         1.1741   -3.8330    6.8650 H         1 <0>         0.1531
@<TRIPOS>BOND
     1    1    2 1
     2    1   22 1
     3    1   23 1
     4    1   24 1
     5    2    7 ar
     6    2    3 ar
     7    3    4 ar
     8    3   25 1
     9    4    5 ar
    10    4   26 1
    11    5    6 ar
    12    5   27 1
    13    6    7 ar
    14    6    9 1
    15    7    8 1
    16    8   28 1
    17    8   29 1
    18    8   30 1
    19    9   10 1
    20    9   31 1
    21   10   11 1
    22   10   12 1
    23   10   13 1
    24   12   32 1
    25   12   33 1
    26   12   34 1
    27   13   18 ar
    28   13   14 ar
    29   14   15 ar
    30   14   35 1
    31   15   16 ar
    32   15   36 1
    33   16   17 ar
    34   16   21 1
    35   17   18 ar
    36   17   20 1
    37   18   19 1
@<TRIPOS>MOLECULE
ZINC59146994
   46    47     0     0     0
SMALL
USER_CHARGES

@<TRIPOS>ATOM
      1 C1         -0.8584    1.5465    0.2575 C.3       1 <0>        -0.1144
      2 C2         -0.8219    0.0404    0.2215 C.ar      1 <0>        -0.1223
      3 C3         -1.0519   -0.6270   -0.9679 C.ar      1 <0>        -0.0657
      4 C4         -1.0198   -2.0068   -1.0049 C.ar      1 <0>        -0.1761
      5 C5         -0.7553   -2.7261    0.1551 C.ar      1 <0>         0.2247
      6 C6         -0.5240   -2.0531    1.3486 C.ar      1 <0>        -0.1559
      7 C7         -0.5526   -0.6716    1.3774 C.ar      1 <0>         0.0018
      8 Cl1        -0.2570    0.1712    2.8660 Cl        1 <0>        -0.0653
      9 N1         -0.7226   -4.1204    0.1209 N.pl3     1 <0>        -0.5866
     10 N2         -0.4559   -4.8437    1.2907 N.2       1 <0>        -0.2349
     11 C8         -0.4254   -6.1413    1.2590 C.2       1 <0>         0.1028
     12 C9         -0.1448   -6.9024    2.4900 C.ar      1 <0>        -0.0927
     13 C10        -0.2252   -8.2976    2.4851 C.ar      1 <0>        -0.0452
     14 C11         0.0384   -9.0049    3.6380 C.ar      1 <0>        -0.1152
     15 C12         0.3836   -8.3332    4.8038 C.ar      1 <0>         0.1503
     16 C13         0.4648   -6.9471    4.8134 C.ar      1 <0>        -0.2138
     17 C14         0.2080   -6.2315    3.6636 C.ar      1 <0>        -0.0080
     18 C15         0.3020   -4.7274    3.6739 C.3       1 <0>        -0.1210
     19 O1          0.6423   -9.0347    5.9383 O.3       1 <0>        -0.3119
     20 C16         0.9915   -8.2815    7.1014 C.3       1 <0>         0.0250
     21 C17        -0.0485  -10.5094    3.6342 C.3       1 <0>        -0.0504
     22 C18        -1.4672  -10.9373    3.2534 C.3       1 <0>        -0.1438
     23 C19         0.9451  -11.0750    2.6174 C.3       1 <0>        -0.1438
     24 H1          0.1371    1.9392    0.0505 H         1 <0>         0.0714
     25 H2         -1.5567    1.9112   -0.4958 H         1 <0>         0.0682
     26 H3         -1.1820    1.8786    1.2440 H         1 <0>         0.0708
     27 H4         -1.2574   -0.0681   -1.8688 H         1 <0>         0.1346
     28 H5         -1.2003   -2.5269   -1.9340 H         1 <0>         0.1283
     29 H6         -0.3183   -2.6087    2.2516 H         1 <0>         0.1448
     30 H7         -0.8845   -4.5891   -0.7128 H         1 <0>         0.3895
     31 H8         -0.6057   -6.6631    0.3307 H         1 <0>         0.1179
     32 H9         -0.4939   -8.8207    1.5792 H         1 <0>         0.1335
     33 H10         0.7333   -6.4290    5.7223 H         1 <0>         0.1318
     34 H11        -0.6915   -4.3022    3.8164 H         1 <0>         0.0765
     35 H12         0.9534   -4.4097    4.4881 H         1 <0>         0.0580
     36 H13         0.7122   -4.3825    2.7248 H         1 <0>         0.0973
     37 H14         1.8938   -7.7033    6.9024 H         1 <0>         0.0571
     38 H15         0.1751   -7.6052    7.3549 H         1 <0>         0.0571
     39 H16         1.1719   -8.9615    7.9340 H         1 <0>         0.1019
     40 H17         0.1916  -10.8897    4.6271 H         1 <0>         0.0861
     41 H18        -1.7073  -10.5570    2.2606 H         1 <0>         0.0551
     42 H19        -1.5300  -12.0255    3.2507 H         1 <0>         0.0585
     43 H20        -2.1750  -10.5344    3.9778 H         1 <0>         0.0552
     44 H21         1.9558  -10.7701    2.8886 H         1 <0>         0.0553
     45 H22         0.8822  -12.1632    2.6146 H         1 <0>         0.0585
     46 H23         0.7050  -10.6947    1.6245 H         1 <0>         0.0551
@<TRIPOS>BOND
     1    1    2 1
     2    1   24 1
     3    1   25 1
     4    1   26 1
     5    2    7 ar
     6    2    3 ar
     7    3    4 ar
     8    3   27 1
     9    4    5 ar
    10    4   28 1
    11    5    6 ar
    12    5    9 1
    13    6    7 ar
    14    6   29 1
    15    7    8 1
    16    9   10 1
    17    9   30 1
    18   10   11 2
    19   11   12 1
    20   11   31 1
    21   12   17 ar
    22   12   13 ar
    23   13   14 ar
    24   13   32 1
    25   14   15 ar
    26   14   21 1
    27   15   16 ar
    28   15   19 1
    29   16   17 ar
    30   16   33 1
    31   17   18 1
    32   18   34 1
    33   18   35 1
    34   18   36 1
    35   19   20 1
    36   20   37 1
    37   20   38 1
    38   20   39 1
    39   21   22 1
    40   21   23 1
    41   21   40 1
    42   22   41 1
    43   22   42 1
    44   22   43 1
    45   23   44 1
    46   23   45 1
    47   23   46 1
@<TRIPOS>MOLECULE
ZINC13459744
   50    53     0     0     0
SMALL
USER_CHARGES
2-[(N'E)-N'-[(3-methyl-5-phenoxy-1-phenyl-pyrazol-4-yl)methylene]hydrazino]benzoic acid
@<TRIPOS>ATOM
      1 C1          3.6231    0.8451    0.0476 C.3       1 <0>        -0.0793
      2 C2          2.1175    0.7863    0.0738 C.2       1 <0>         0.1240
      3 C3          1.3365   -0.3899    0.0684 C.2       1 <0>        -0.1453
      4 C4          0.0069    0.0007    0.0990 C.2       1 <0>         0.2561
      5 N1         -0.0100    1.3593    0.1219 N.pl3     1 <0>        -0.3217
      6 N2          1.3133    1.8142    0.1055 N.2       1 <0>        -0.2669
      7 C5         -1.1555    2.1660    0.1508 C.ar      1 <0>         0.1516
      8 C6         -2.2985    1.7760   -0.5344 C.ar      1 <0>        -0.1318
      9 C7         -3.4278    2.5705   -0.4992 C.ar      1 <0>        -0.0973
     10 C8         -3.4171    3.7589    0.2076 C.ar      1 <0>        -0.1208
     11 C9         -2.2786    4.1525    0.8867 C.ar      1 <0>        -0.1026
     12 C10        -1.1480    3.3597    0.8601 C.ar      1 <0>        -0.1064
     13 O1         -1.0733   -0.8185    0.1049 O.3       1 <0>        -0.2234
     14 C11        -1.6032   -1.1839   -1.0916 C.ar      1 <0>         0.1075
     15 C12        -1.0431   -0.7162   -2.2719 C.ar      1 <0>        -0.1862
     16 C13        -1.5806   -1.0936   -3.4872 C.ar      1 <0>        -0.0800
     17 C14        -2.6823   -1.9282   -3.5279 C.ar      1 <0>        -0.1443
     18 C15        -3.2459   -2.3911   -2.3532 C.ar      1 <0>        -0.0818
     19 C16        -2.7091   -2.0211   -1.1354 C.ar      1 <0>        -0.1347
     20 C17         1.8408   -1.7744    0.0362 C.2       1 <0>         0.0980
     21 N3          3.1193   -1.9993    0.0093 N.2       1 <0>        -0.2309
     22 N4          3.5986   -3.3154   -0.0212 N.pl3     1 <0>        -0.5542
     23 C18         4.9634   -3.5553   -0.0499 C.ar      1 <0>         0.2434
     24 C19         5.8575   -2.4962   -0.1635 C.ar      1 <0>        -0.1873
     25 C20         7.2149   -2.7377   -0.1875 C.ar      1 <0>        -0.0839
     26 C21         7.6995   -4.0346   -0.1086 C.ar      1 <0>        -0.1893
     27 C22         6.8306   -5.0976   -0.0009 C.ar      1 <0>        -0.0363
     28 C23         5.4514   -4.8708    0.0297 C.ar      1 <0>        -0.1849
     29 C24         4.5166   -6.0025    0.1442 C.2       1 <0>         0.5016
     30 O2          3.3188   -5.8115    0.0666 O.co2     1 <0>        -0.6399
     31 H1          3.9675    0.8764   -0.9861 H         1 <0>         0.0831
     32 H2          3.9610    1.7399    0.5703 H         1 <0>         0.0734
     33 H3          4.0299   -0.0384    0.5395 H         1 <0>         0.1030
     34 H4         -2.3058    0.8505   -1.0909 H         1 <0>         0.1326
     35 H5         -4.3186    2.2655   -1.0283 H         1 <0>         0.1319
     36 H6         -4.2998    4.3808    0.2297 H         1 <0>         0.1291
     37 H7         -2.2734    5.0811    1.4382 H         1 <0>         0.1327
     38 H8         -0.2592    3.6676    1.3906 H         1 <0>         0.1357
     39 H9         -0.1851   -0.0610   -2.2405 H         1 <0>         0.1266
     40 H10        -1.1425   -0.7331   -4.4061 H         1 <0>         0.1283
     41 H11        -3.1035   -2.2187   -4.4790 H         1 <0>         0.1277
     42 H12        -4.1068   -3.0424   -2.3879 H         1 <0>         0.1347
     43 H13        -3.1500   -2.3827   -0.2182 H         1 <0>         0.1368
     44 H14         1.1468   -2.6020    0.0350 H         1 <0>         0.1157
     45 H15         2.9754   -4.0586   -0.0223 H         1 <0>         0.4156
     46 H16         5.4885   -1.4833   -0.2296 H         1 <0>         0.1265
     47 H17         7.9053   -1.9115   -0.2720 H         1 <0>         0.1144
     48 H18         8.7646   -4.2121   -0.1321 H         1 <0>         0.1133
     49 H19         7.2142   -6.1054    0.0594 H         1 <0>         0.1302
     50 O3          4.9891   -7.2503    0.3350 O.co2     1 <0>        -0.7447
@<TRIPOS>BOND
     1    1    2 1
     2    1   31 1
     3    1   32 1
     4    1   33 1
     5    2    6 2
     6    2    3 1
     7    3    4 2
     8    3   20 1
     9    4    5 1
    10    4   13 1
    11    5    6 1
    12    5    7 1
    13    7   12 ar
    14    7    8 ar
    15    8    9 ar
    16    8   34 1
    17    9   10 ar
    18    9   35 1
    19   10   11 ar
    20   10   36 1
    21   11   12 ar
    22   11   37 1
    23   12   38 1
    24   13   14 1
    25   14   19 ar
    26   14   15 ar
    27   15   16 ar
    28   15   39 1
    29   16   17 ar
    30   16   40 1
    31   17   18 ar
    32   17   41 1
    33   18   19 ar
    34   18   42 1
    35   19   43 1
    36   20   21 2
    37   20   44 1
    38   21   22 1
    39   22   23 1
    40   22   45 1
    41   23   28 ar
    42   23   24 ar
    43   24   25 ar
    44   24   46 1
    45   25   26 ar
    46   25   47 1
    47   26   27 ar
    48   26   48 1
    49   27   28 ar
    50   27   49 1
    51   28   29 1
    52   29   30 2
    53   29   50 1
@<TRIPOS>MOLECULE
ZINC34388018
   54    56     0     0     0
SMALL
USER_CHARGES

@<TRIPOS>ATOM
      1 C1          1.6129   -4.7522   -3.0851 C.3       1 <0>        -0.0795
      2 C2          1.4569   -4.6264   -1.5915 C.2       1 <0>         0.0637
      3 N1          2.1737   -5.2146   -0.7143 N.2       1 <0>        -0.3021
      4 O1          1.7898   -4.9115    0.6122 O.3       1 <0>        -0.1522
      5 C3          0.9764   -3.7210    0.5672 C.3       1 <0>         0.0167
      6 C4          0.4257   -3.7743   -0.8764 C.3       1 <0>        -0.1218
      7 C5          1.8272   -2.4670    0.7776 C.3       1 <0>         0.1403
      8 H1          1.2135   -1.5805    0.6176 H         1 <0>         0.0857
      9 C6          2.9735   -2.4677   -0.2007 C.ar      1 <0>        -0.0942
     10 C7          4.0955   -3.2357    0.0501 C.ar      1 <0>        -0.0487
     11 C8          5.1476   -3.2369   -0.8461 C.ar      1 <0>        -0.1008
     12 C9          5.0783   -2.4696   -1.9952 C.ar      1 <0>        -0.0297
     13 C10         3.9546   -1.7009   -2.2466 C.ar      1 <0>        -0.0354
     14 C11         2.9002   -1.7050   -1.3509 C.ar      1 <0>        -0.0935
     15 Cl1         3.8663   -0.7371   -3.6878 Cl        1 <0>        -0.0584
     16 Cl2         6.3997   -2.4703   -3.1210 Cl        1 <0>        -0.0603
     17 O2          2.3396   -2.4572    2.1116 O.3       1 <0>        -0.3416
     18 C12         2.5699   -1.1481    2.6362 C.3       1 <0>         0.0986
     19 C13         3.0943   -1.2566    4.0449 C.ar      1 <0>        -0.0847
     20 C14         2.2137   -1.2829    5.1101 C.ar      1 <0>        -0.0866
     21 C15         2.6946   -1.3824    6.4022 C.ar      1 <0>        -0.1183
     22 C16         4.0563   -1.4560    6.6291 C.ar      1 <0>        -0.0696
     23 C17         4.9369   -1.4306    5.5639 C.ar      1 <0>        -0.1282
     24 C18         4.4557   -1.3355    4.2715 C.ar      1 <0>        -0.0963
     25 C19         4.5807   -1.5634    8.0379 C.3       1 <0>        -0.0294
     26 C20         4.0278   -2.8309    8.6926 C.3       1 <0>        -0.1395
     27 C21         6.1090   -1.6291    8.0095 C.3       1 <0>        -0.1429
     28 C22         4.1377   -0.3393    8.8417 C.3       1 <0>        -0.1373
     29 C23        -0.1392   -3.7903    1.5781 C.2       1 <0>         0.5241
     30 O3         -0.2452   -4.7648    2.3031 O.co2     1 <0>        -0.6589
     31 O4         -0.9356   -2.8719    1.6709 O.co2     1 <0>        -0.6835
     32 H2          2.3059   -3.9910   -3.4434 H         1 <0>         0.0795
     33 H3          2.0022   -5.7410   -3.3277 H         1 <0>         0.0772
     34 H4          0.6435   -4.6157   -3.5644 H         1 <0>         0.0808
     35 H5          0.3795   -2.7759   -1.3114 H         1 <0>         0.0903
     36 H6         -0.5535   -4.2526   -0.8973 H         1 <0>         0.0998
     37 H7          4.1499   -3.8348    0.9471 H         1 <0>         0.1462
     38 H8          6.0240   -3.8365   -0.6492 H         1 <0>         0.1397
     39 H9          2.0216   -1.1087   -1.5484 H         1 <0>         0.1394
     40 H10         3.3014   -0.6313    2.0150 H         1 <0>         0.0504
     41 H11         1.6349   -0.5880    2.6387 H         1 <0>         0.0605
     42 H12         1.1499   -1.2254    4.9328 H         1 <0>         0.1262
     43 H13         2.0067   -1.4022    7.2345 H         1 <0>         0.1201
     44 H14         6.0007   -1.4878    5.7412 H         1 <0>         0.1236
     45 H15         5.1435   -1.3194    3.4390 H         1 <0>         0.1186
     46 H16         4.3434   -3.7030    8.1199 H         1 <0>         0.0578
     47 H17         4.4071   -2.9086    9.7115 H         1 <0>         0.0556
     48 H18         2.9390   -2.7841    8.7128 H         1 <0>         0.0584
     49 H19         6.5029   -0.7262    7.5431 H         1 <0>         0.0574
     50 H20         6.4883   -1.7069    9.0284 H         1 <0>         0.0554
     51 H21         6.4246   -2.5012    7.4368 H         1 <0>         0.0590
     52 H22         3.0488   -0.2925    8.8619 H         1 <0>         0.0575
     53 H23         4.5170   -0.4170    9.8606 H         1 <0>         0.0557
     54 H24         4.5316    0.5637    8.3753 H         1 <0>         0.0550
@<TRIPOS>BOND
     1    1    2 1
     2    1   32 1
     3    1   33 1
     4    1   34 1
     5    2    6 1
     6    2    3 2
     7    3    4 1
     8    4    5 1
     9    5    6 1
    10    5    7 1
    11    5   29 1
    12    6   35 1
    13    6   36 1
    14    7    8 1
    15    7    9 1
    16    7   17 1
    17    9   14 ar
    18    9   10 ar
    19   10   11 ar
    20   10   37 1
    21   11   12 ar
    22   11   38 1
    23   12   13 ar
    24   12   16 1
    25   13   14 ar
    26   13   15 1
    27   14   39 1
    28   17   18 1
    29   18   19 1
    30   18   40 1
    31   18   41 1
    32   19   24 ar
    33   19   20 ar
    34   20   21 ar
    35   20   42 1
    36   21   22 ar
    37   21   43 1
    38   22   23 ar
    39   22   25 1
    40   23   24 ar
    41   23   44 1
    42   24   45 1
    43   25   26 1
    44   25   27 1
    45   25   28 1
    46   26   46 1
    47   26   47 1
    48   26   48 1
    49   27   49 1
    50   27   50 1
    51   27   51 1
    52   28   52 1
    53   28   53 1
    54   28   54 1
    55   29   30 2
    56   29   31 1
@<TRIPOS>MOLECULE
ZINC35703771
   62    65     0     0     0
SMALL
USER_CHARGES

@<TRIPOS>ATOM
      1 C1          1.4476    0.3788   -0.2753 C.3       1 <0>        -0.1160
      2 C2          0.8092   -0.9728   -0.0840 C.ar      1 <0>        -0.0369
      3 C3          0.6582   -1.8249   -1.1622 C.ar      1 <0>        -0.1263
      4 C4          0.0727   -3.0645   -0.9867 C.ar      1 <0>        -0.1185
      5 C5         -0.3617   -3.4526    0.2672 C.ar      1 <0>        -0.1300
      6 C6         -0.2099   -2.6011    1.3453 C.ar      1 <0>        -0.0893
      7 C7          0.3797   -1.3628    1.1705 C.ar      1 <0>        -0.0672
      8 C8          0.5499   -0.4366    2.3470 C.3       1 <0>         0.2553
      9 H1          1.1721    0.3986    2.0252 H         1 <0>         0.0772
     10 C9         -0.8126    0.1106    2.7097 C.2       1 <0>        -0.3938
     11 C10        -1.2751   -0.1110    3.9928 C.2       1 <0>         0.3012
     12 N1         -0.5390   -0.7810    4.8644 N.2       1 <0>        -0.5979
     13 C11         0.6527   -1.2827    4.6131 C.2       1 <0>         0.3193
     14 N2          1.2865   -1.1742    3.4076 N.pl3     1 <0>        -0.5120
     15 C12         2.5347   -1.7549    3.3022 C.2       1 <0>         0.2341
     16 C13         3.0285   -2.3821    4.3926 C.2       1 <0>        -0.3073
     17 S1          1.7198   -2.1491    5.5762 S.3       1 <0>         0.1427
     18 C14         3.2991   -1.6936    2.0482 C.2       1 <0>        -0.4701
     19 C15         4.4394   -2.3988    1.9193 C.2       1 <0>         0.5021
     20 O1          4.8085   -3.2730    2.8870 O.3       1 <0>        -0.7054
     21 N3          5.2344   -2.2308    0.7982 N.pl3     1 <0>        -0.7534
     22 C16         6.4154   -3.0757    0.6044 C.3       1 <0>         0.1712
     23 C17         7.1804   -2.6065   -0.6348 C.3       1 <0>        -0.1614
     24 C18         7.2879   -3.5808   -1.8096 C.3       1 <0>        -0.1804
     25 C19         8.5143   -3.2899   -0.9423 C.3       1 <0>        -0.1766
     26 C20        -2.6268    0.4144    4.4022 C.3       1 <0>        -0.1155
     27 C21        -1.5796    0.8186    1.7766 C.2       1 <0>         0.5409
     28 O2         -2.6474    1.3038    2.1080 O.2       1 <0>        -0.5455
     29 O3         -1.1360    0.9639    0.5083 O.3       1 <0>        -0.3375
     30 C22        -1.9382    1.7521   -0.3732 C.3       1 <0>         0.1198
     31 C23        -2.0711    3.1692    0.1880 C.3       1 <0>        -0.1808
     32 C24        -1.2760    1.8094   -1.7513 C.3       1 <0>        -0.1389
     33 C25        -3.3265    1.1217   -0.5004 C.3       1 <0>        -0.1806
     34 H2          2.5134    0.3114   -0.0570 H         1 <0>         0.0650
     35 H3          1.3077    0.7040   -1.3063 H         1 <0>         0.0594
     36 H4          0.9834    1.0986    0.3988 H         1 <0>         0.0773
     37 H5          0.9975   -1.5217   -2.1417 H         1 <0>         0.1132
     38 H6         -0.0459   -3.7298   -1.8291 H         1 <0>         0.1122
     39 H7         -0.8198   -4.4209    0.4042 H         1 <0>         0.1116
     40 H8         -0.5495   -2.9041    2.3247 H         1 <0>         0.1017
     41 H9          3.9726   -2.8921    4.5145 H         1 <0>         0.2306
     42 H10         2.9465   -1.0830    1.2301 H         1 <0>         0.0929
     43 H11         5.0095   -1.5536    0.1412 H         1 <0>         0.3842
     44 H12         7.0615   -3.0033    1.4793 H         1 <0>         0.0586
     45 H13         6.1030   -4.1111    0.4681 H         1 <0>         0.0468
     46 H14         7.0933   -1.5451   -0.8671 H         1 <0>         0.1040
     47 H15         6.8136   -4.5560   -1.6996 H         1 <0>         0.0942
     48 H16         7.2714   -3.1605   -2.8151 H         1 <0>         0.0901
     49 H17         9.3047   -2.6782   -1.3773 H         1 <0>         0.0918
     50 H18         8.8469   -4.0738   -0.2618 H         1 <0>         0.0949
     51 H19        -3.3986   -0.2936    4.1002 H         1 <0>         0.0775
     52 H20        -2.6544    0.5422    5.4844 H         1 <0>         0.0627
     53 H21        -2.8052    1.3746    3.9183 H         1 <0>         0.1137
     54 H22        -1.0820    3.6184    0.2786 H         1 <0>         0.0553
     55 H23        -2.6830    3.7705   -0.4844 H         1 <0>         0.0603
     56 H24        -2.5428    3.1284    1.1698 H         1 <0>         0.0840
     57 H25        -1.2595    0.8110   -2.1883 H         1 <0>         0.0632
     58 H26        -1.8413    2.4800   -2.3985 H         1 <0>         0.0679
     59 H27        -0.2554    2.1781   -1.6489 H         1 <0>         0.0645
     60 H28        -3.7983    1.0809    0.4814 H         1 <0>         0.0875
     61 H29        -3.9384    1.7230   -1.1728 H         1 <0>         0.0578
     62 H30        -3.2319    0.1121   -0.9002 H         1 <0>         0.0548
@<TRIPOS>BOND
     1    1    2 1
     2    1   34 1
     3    1   35 1
     4    1   36 1
     5    2    7 ar
     6    2    3 ar
     7    3    4 ar
     8    3   37 1
     9    4    5 ar
    10    4   38 1
    11    5    6 ar
    12    5   39 1
    13    6    7 ar
    14    6   40 1
    15    7    8 1
    16    8    9 1
    17    8   14 1
    18    8   10 1
    19   10   11 2
    20   10   27 1
    21   11   12 1
    22   11   26 1
    23   12   13 2
    24   13   17 1
    25   13   14 1
    26   14   15 1
    27   15   16 2
    28   15   18 1
    29   16   17 1
    30   16   41 1
    31   18   19 2
    32   18   42 1
    33   19   20 1
    34   19   21 1
    35   21   22 1
    36   21   43 1
    37   22   23 1
    38   22   44 1
    39   22   45 1
    40   23   25 1
    41   23   24 1
    42   23   46 1
    43   24   25 1
    44   24   47 1
    45   24   48 1
    46   25   49 1
    47   25   50 1
    48   26   51 1
    49   26   52 1
    50   26   53 1
    51   27   28 2
    52   27   29 1
    53   29   30 1
    54   30   31 1
    55   30   32 1
    56   30   33 1
    57   31   54 1
    58   31   55 1
    59   31   56 1
    60   32   57 1
    61   32   58 1
    62   32   59 1
    63   33   60 1
    64   33   61 1
    65   33   62 1
@<TRIPOS>MOLECULE
ZINC38647832
   59    62     0     0     0
SMALL
USER_CHARGES

@<TRIPOS>ATOM
      1 C1         -0.6664    0.1530    0.6226 C.3       1 <0>        -0.1390
      2 C2         -1.4978   -1.1295    0.5531 C.3       1 <0>        -0.0098
      3 H1         -1.1269   -1.7596   -0.2553 H         1 <0>         0.0895
      4 C3         -1.3865   -1.8717    1.8600 C.ar      1 <0>        -0.0579
      5 C4         -1.0106   -3.2019    1.8695 C.ar      1 <0>        -0.1143
      6 C5         -0.9085   -3.8827    3.0683 C.ar      1 <0>        -0.1200
      7 C6         -1.1819   -3.2332    4.2575 C.ar      1 <0>        -0.1322
      8 C7         -1.5569   -1.9027    4.2480 C.ar      1 <0>        -0.1217
      9 C8         -1.6549   -1.2208    3.0495 C.ar      1 <0>        -0.1155
     10 C9         -2.9408   -0.7795    0.2956 C.ar      1 <0>        -0.0862
     11 C10        -3.5901    0.1235    1.1153 C.ar      1 <0>        -0.1070
     12 C11        -4.9140    0.4447    0.8799 C.ar      1 <0>        -0.1393
     13 C12        -5.5915   -0.1362   -0.1764 C.ar      1 <0>        -0.1083
     14 C13        -4.9468   -1.0391   -0.9991 C.ar      1 <0>        -0.1312
     15 C14        -3.6165   -1.3592   -0.7681 C.ar      1 <0>         0.1481
     16 O1         -2.9783   -2.2430   -1.5795 O.3       1 <0>        -0.6567
     17 P1         -2.5794   -1.6409   -3.0184 P.3       1 <0>         2.1459
     18 O2         -3.8400   -1.0694   -3.7050 O.2       1 <0>        -1.0563
     19 O3         -1.5378   -0.5147   -2.8347 O.3       1 <0>        -1.0558
     20 O4         -1.9524   -2.8078   -3.9334 O.3       1 <0>        -0.6573
     21 C15        -1.6811   -2.4247   -5.2087 C.ar      1 <0>         0.1516
     22 C16        -0.5769   -1.6279   -5.4750 C.ar      1 <0>        -0.1400
     23 C17        -0.3031   -1.2402   -6.7722 C.ar      1 <0>        -0.1067
     24 C18        -1.1285   -1.6457   -7.8050 C.ar      1 <0>        -0.1400
     25 C19        -2.2295   -2.4393   -7.5423 C.ar      1 <0>        -0.1035
     26 C20        -2.5044   -2.8344   -6.2472 C.ar      1 <0>        -0.0848
     27 C21        -3.7013   -3.7047   -5.9623 C.3       1 <0>        -0.0089
     28 H2         -3.7898   -3.8602   -4.8870 H         1 <0>         0.0860
     29 C22        -4.9659   -3.0197   -6.4843 C.3       1 <0>        -0.1426
     30 C23        -3.5303   -5.0348   -6.6497 C.ar      1 <0>        -0.0588
     31 C24        -3.7225   -5.1371   -8.0148 C.ar      1 <0>        -0.1152
     32 C25        -3.5657   -6.3572   -8.6454 C.ar      1 <0>        -0.1217
     33 C26        -3.2162   -7.4749   -7.9110 C.ar      1 <0>        -0.1318
     34 C27        -3.0231   -7.3725   -6.5461 C.ar      1 <0>        -0.1198
     35 C28        -3.1757   -6.1515   -5.9161 C.ar      1 <0>        -0.1142
     36 H3          0.3772   -0.1002    0.8088 H         1 <0>         0.0540
     37 H4         -0.7469    0.6898   -0.3227 H         1 <0>         0.0802
     38 H5         -1.0373    0.7831    1.4310 H         1 <0>         0.0508
     39 H6         -0.7970   -3.7094    0.9404 H         1 <0>         0.1212
     40 H7         -0.6154   -4.9222    3.0757 H         1 <0>         0.1182
     41 H8         -1.1028   -3.7653    5.1940 H         1 <0>         0.1163
     42 H9         -1.7709   -1.3953    5.1771 H         1 <0>         0.1180
     43 H10        -1.9443   -0.1803    3.0424 H         1 <0>         0.1231
     44 H11        -3.0632    0.5785    1.9410 H         1 <0>         0.1232
     45 H12        -5.4200    1.1502    1.5223 H         1 <0>         0.1197
     46 H13        -6.6258    0.1161   -0.3581 H         1 <0>         0.1231
     47 H14        -5.4763   -1.4925   -1.8240 H         1 <0>         0.1371
     48 H15         0.0677   -1.3106   -4.6687 H         1 <0>         0.1389
     49 H16         0.5560   -0.6197   -6.9799 H         1 <0>         0.1234
     50 H17        -0.9127   -1.3415   -8.8186 H         1 <0>         0.1197
     51 H18        -2.8727   -2.7544   -8.3506 H         1 <0>         0.1222
     52 H19        -4.8774   -2.8642   -7.5595 H         1 <0>         0.0519
     53 H20        -5.8315   -3.6491   -6.2782 H         1 <0>         0.0532
     54 H21        -5.0895   -2.0576   -5.9870 H         1 <0>         0.0840
     55 H22        -3.9956   -4.2638   -8.5886 H         1 <0>         0.1229
     56 H23        -3.7165   -6.4372   -9.7119 H         1 <0>         0.1182
     57 H24        -3.0943   -8.4283   -8.4036 H         1 <0>         0.1164
     58 H25        -2.7503   -8.2458   -5.9722 H         1 <0>         0.1183
     59 H26        -3.0212   -6.0707   -4.8503 H         1 <0>         0.1214
@<TRIPOS>BOND
     1    1    2 1
     2    1   36 1
     3    1   37 1
     4    1   38 1
     5    2    3 1
     6    2    4 1
     7    2   10 1
     8    4    9 ar
     9    4    5 ar
    10    5    6 ar
    11    5   39 1
    12    6    7 ar
    13    6   40 1
    14    7    8 ar
    15    7   41 1
    16    8    9 ar
    17    8   42 1
    18    9   43 1
    19   10   15 ar
    20   10   11 ar
    21   11   12 ar
    22   11   44 1
    23   12   13 ar
    24   12   45 1
    25   13   14 ar
    26   13   46 1
    27   14   15 ar
    28   14   47 1
    29   15   16 1
    30   16   17 1
    31   17   18 2
    32   17   19 1
    33   17   20 1
    34   20   21 1
    35   21   26 ar
    36   21   22 ar
    37   22   23 ar
    38   22   48 1
    39   23   24 ar
    40   23   49 1
    41   24   25 ar
    42   24   50 1
    43   25   26 ar
    44   25   51 1
    45   26   27 1
    46   27   28 1
    47   27   29 1
    48   27   30 1
    49   29   52 1
    50   29   53 1
    51   29   54 1
    52   30   35 ar
    53   30   31 ar
    54   31   32 ar
    55   31   55 1
    56   32   33 ar
    57   32   56 1
    58   33   34 ar
    59   33   57 1
    60   34   35 ar
    61   34   58 1
    62   35   59 1
@<TRIPOS>MOLECULE
ZINC32943253
   53    56     0     0     0
SMALL
USER_CHARGES

@<TRIPOS>ATOM
      1 C1          0.4837    1.5289    0.0696 C.3       1 <0>        -0.0933
      2 C2         -0.7605    0.6995    0.2565 C.ar      1 <0>        -0.1727
      3 C3         -1.7250    0.6676   -0.7319 C.ar      1 <0>        -0.0675
      4 C4         -2.8668   -0.0928   -0.5617 C.ar      1 <0>        -0.1899
      5 C5         -3.0479   -0.8243    0.5994 C.ar      1 <0>         0.0112
      6 C6         -2.0867   -0.7960    1.5920 C.ar      1 <0>        -0.1600
      7 C7         -0.9357   -0.0380    1.4202 C.ar      1 <0>         0.3108
      8 N1          0.0420   -0.0119    2.4201 N.pl3     1 <0>        -0.7220
      9 C8         -0.1487   -0.7071    3.5796 C.2       1 <0>         0.6007
     10 N2         -0.4704   -0.0438    4.7274 N.2       1 <0>        -0.6442
     11 C9         -0.6112    1.4144    4.7159 C.3       1 <0>         0.0907
     12 C10        -0.9730    1.9029    6.1199 C.3       1 <0>        -0.0257
     13 C11        -1.1179    3.4029    6.1080 C.2       1 <0>        -0.1476
     14 C12        -0.1690    4.2992    6.4213 C.2       1 <0>         0.0376
     15 N3         -0.6658    5.5679    6.2955 N.pl3     1 <0>        -0.5996
     16 H1         -0.1665    6.3815    6.4679 H         1 <0>         0.4115
     17 C13        -1.9800    5.5177    5.8878 C.ar      1 <0>         0.0944
     18 C14        -2.3190    4.1595    5.7464 C.ar      1 <0>        -0.1006
     19 C15        -3.6035    3.8015    5.3336 C.ar      1 <0>        -0.0604
     20 C16        -4.5255    4.7739    5.0652 C.ar      1 <0>        -0.1533
     21 C17        -4.1949    6.1152    5.1992 C.ar      1 <0>        -0.1009
     22 C18        -2.9357    6.4905    5.6142 C.ar      1 <0>        -0.1381
     23 N4         -0.0214   -2.0252    3.5901 N.2       1 <0>        -0.6907
     24 C19         0.1598   -2.6898    2.4410 C.2       1 <0>         0.5005
     25 O1          0.2173   -2.0806    1.3876 O.2       1 <0>        -0.5724
     26 C20         0.2902   -4.1644    2.4514 C.ar      1 <0>        -0.0799
     27 C21         0.0969   -4.8766    3.6356 C.ar      1 <0>        -0.0561
     28 C22         0.2198   -6.2503    3.6390 C.ar      1 <0>        -0.1399
     29 C23         0.5343   -6.9235    2.4712 C.ar      1 <0>        -0.1077
     30 C24         0.7274   -6.2248    1.2937 C.ar      1 <0>        -0.1359
     31 C25         0.6016   -4.8490    1.2753 C.ar      1 <0>        -0.0028
     32 Cl1         0.8367   -3.9734   -0.2052 Cl        1 <0>        -0.0462
     33 Cl2        -4.4836   -1.7774    0.8092 Cl        1 <0>        -0.0955
     34 H2          1.2529    0.9264   -0.4134 H         1 <0>         0.0607
     35 H3          0.2541    2.3929   -0.5540 H         1 <0>         0.0566
     36 H4          0.8440    1.8675    1.0410 H         1 <0>         0.0522
     37 H5         -1.5869    1.2379   -1.6386 H         1 <0>         0.1161
     38 H6         -3.6193   -0.1159   -1.3361 H         1 <0>         0.1154
     39 H7         -2.2283   -1.3662    2.4982 H         1 <0>         0.1252
     40 H8          0.3298    1.8678    4.4046 H         1 <0>         0.0151
     41 H9         -1.3993    1.6978    4.0182 H         1 <0>         0.0219
     42 H10        -1.9141    1.4495    6.4311 H         1 <0>         0.0672
     43 H11        -0.1849    1.6195    6.8175 H         1 <0>         0.0660
     44 H12         0.8375    4.0551    6.7277 H         1 <0>         0.1670
     45 H13        -3.8677    2.7598    5.2264 H         1 <0>         0.1223
     46 H14        -5.5192    4.4965    4.7458 H         1 <0>         0.1195
     47 H15        -4.9341    6.8721    4.9827 H         1 <0>         0.1206
     48 H16        -2.6877    7.5369    5.7143 H         1 <0>         0.1146
     49 H17         0.8556    0.4999    2.2897 H         1 <0>         0.3868
     50 H18        -0.1482   -4.3531    4.5479 H         1 <0>         0.1470
     51 H19         0.0707   -6.8022    4.5553 H         1 <0>         0.1232
     52 H20         0.6297   -7.9992    2.4798 H         1 <0>         0.1227
     53 H21         0.9727   -6.7559    0.3859 H         1 <0>         0.1252
@<TRIPOS>BOND
     1    1    2 1
     2    1   34 1
     3    1   35 1
     4    1   36 1
     5    2    7 ar
     6    2    3 ar
     7    3    4 ar
     8    3   37 1
     9    4    5 ar
    10    4   38 1
    11    5    6 ar
    12    5   33 1
    13    6    7 ar
    14    6   39 1
    15    7    8 1
    16    8   49 1
    17    8    9 1
    18    9   10 1
    19    9   23 2
    20   10   11 1
    21   11   12 1
    22   11   40 1
    23   11   41 1
    24   12   13 1
    25   12   42 1
    26   12   43 1
    27   13   18 1
    28   13   14 2
    29   14   15 1
    30   14   44 1
    31   15   16 1
    32   15   17 1
    33   17   22 ar
    34   17   18 ar
    35   18   19 ar
    36   19   20 ar
    37   19   45 1
    38   20   21 ar
    39   20   46 1
    40   21   22 ar
    41   21   47 1
    42   22   48 1
    43   23   24 1
    44   24   25 2
    45   24   26 1
    46   26   31 ar
    47   26   27 ar
    48   27   28 ar
    49   27   50 1
    50   28   29 ar
    51   28   51 1
    52   29   30 ar
    53   29   52 1
    54   30   31 ar
    55   30   53 1
    56   31   32 1
@<TRIPOS>MOLECULE
ZINC06226889
   42    44     0     0     0
SMALL
USER_CHARGES
2,4,6-trichloro-N-[[4-(methyl-phenyl-amino)phenyl]methyleneamino]aniline
@<TRIPOS>ATOM
      1 C1          1.8021    0.7573   -1.3050 C.3       1 <0>         0.0962
      2 N1          2.4010    1.1081   -0.0149 N.pl3     1 <0>        -0.5978
      3 C2          1.8238    0.6484    1.1713 C.ar      1 <0>         0.2104
      4 C3          0.6199   -0.0441    1.1370 C.ar      1 <0>        -0.1903
      5 C4          0.0492   -0.4922    2.3120 C.ar      1 <0>        -0.0759
      6 C5          0.6801   -0.2615    3.5209 C.ar      1 <0>        -0.1723
      7 C6          1.8786    0.4274    3.5586 C.ar      1 <0>        -0.0756
      8 C7          2.4523    0.8829    2.3880 C.ar      1 <0>        -0.1839
      9 C8          3.5485    1.9018    0.0291 C.ar      1 <0>         0.1636
     10 C9          3.4322    3.2855    0.1082 C.ar      1 <0>        -0.1195
     11 C10         4.5624    4.0717    0.1575 C.ar      1 <0>        -0.0748
     12 C11         5.8270    3.4779    0.1165 C.ar      1 <0>        -0.0454
     13 C12         5.9399    2.0873    0.0313 C.ar      1 <0>        -0.0825
     14 C13         4.8052    1.3073   -0.0120 C.ar      1 <0>        -0.1194
     15 C14         7.0386    4.3160    0.1624 C.2       1 <0>         0.0942
     16 N2          6.9319    5.6078    0.2416 N.2       1 <0>        -0.2151
     17 N3          8.0836    6.4044    0.2853 N.pl3     1 <0>        -0.5760
     18 C15         7.9688    7.7939    0.3704 C.ar      1 <0>         0.2426
     19 C16         6.7535    8.4109    0.0956 C.ar      1 <0>        -0.0611
     20 C17         6.6423    9.7854    0.1856 C.ar      1 <0>        -0.0593
     21 C18         7.7414   10.5486    0.5389 C.ar      1 <0>        -0.0584
     22 C19         8.9540    9.9382    0.8080 C.ar      1 <0>        -0.0548
     23 C20         9.0712    8.5637    0.7247 C.ar      1 <0>        -0.0827
     24 Cl1        10.5927    7.7992    1.0625 Cl        1 <0>        -0.0444
     25 Cl2         7.5989   12.2755    0.6442 Cl        1 <0>        -0.0467
     26 Cl3         5.3760    7.4552   -0.3547 Cl        1 <0>        -0.0163
     27 H1          1.0683    1.5139   -1.5827 H         1 <0>         0.0519
     28 H2          2.5808    0.7097   -2.0662 H         1 <0>         0.0688
     29 H3          1.3115   -0.2129   -1.2260 H         1 <0>         0.0734
     30 H4          0.1285   -0.2278    0.1930 H         1 <0>         0.1227
     31 H5         -0.8887   -1.0270    2.2865 H         1 <0>         0.1218
     32 H6          0.2335   -0.6163    4.4380 H         1 <0>         0.1188
     33 H7          2.3668    0.6091    4.5048 H         1 <0>         0.1209
     34 H8          3.3881    1.4212    2.4182 H         1 <0>         0.1196
     35 H9          2.4547    3.7439    0.1354 H         1 <0>         0.1275
     36 H10         4.4713    5.1459    0.2230 H         1 <0>         0.1330
     37 H11         6.9154    1.6250   -0.0010 H         1 <0>         0.1333
     38 H12         4.8916    0.2328   -0.0774 H         1 <0>         0.1302
     39 H13         8.0151    3.8558    0.1303 H         1 <0>         0.1214
     40 H14         8.9606    5.9911    0.2564 H         1 <0>         0.3954
     41 H15         5.6976   10.2650   -0.0241 H         1 <0>         0.1528
     42 H16         9.8098   10.5368    1.0832 H         1 <0>         0.1538
@<TRIPOS>BOND
     1    1    2 1
     2    1   27 1
     3    1   28 1
     4    1   29 1
     5    2    3 1
     6    2    9 1
     7    3    8 ar
     8    3    4 ar
     9    4    5 ar
    10    4   30 1
    11    5    6 ar
    12    5   31 1
    13    6    7 ar
    14    6   32 1
    15    7    8 ar
    16    7   33 1
    17    8   34 1
    18    9   14 ar
    19    9   10 ar
    20   10   11 ar
    21   10   35 1
    22   11   12 ar
    23   11   36 1
    24   12   13 ar
    25   12   15 1
    26   13   14 ar
    27   13   37 1
    28   14   38 1
    29   15   16 2
    30   15   39 1
    31   16   17 1
    32   17   18 1
    33   17   40 1
    34   18   23 ar
    35   18   19 ar
    36   19   20 ar
    37   19   26 1
    38   20   21 ar
    39   20   41 1
    40   21   22 ar
    41   21   25 1
    42   22   23 ar
    43   22   42 1
    44   23   24 1
@<TRIPOS>MOLECULE
ZINC14546970
   50    54     0     0     0
SMALL
USER_CHARGES
(3aS,4R,9bS)-6-benzyloxy-4-(2,6-dichlorophenyl)-3a,4,5,9b-tetrahydro-3H-cyclopenta[c]quinoline
@<TRIPOS>ATOM
      1 C1         -6.2034    2.3861    7.2234 C.ar      1 <0>        -0.1096
      2 C2         -7.0863    2.8674    6.2748 C.ar      1 <0>        -0.1225
      3 C3         -7.0467    2.3784    4.9825 C.ar      1 <0>        -0.0935
      4 C4         -6.1236    1.4086    4.6385 C.ar      1 <0>        -0.0945
      5 C5         -5.2439    0.9238    5.5882 C.ar      1 <0>        -0.0963
      6 C6         -5.2806    1.4160    6.8794 C.ar      1 <0>        -0.1232
      7 C7         -6.0804    0.8755    3.2296 C.3       1 <0>         0.1044
      8 O1         -5.1833    1.6671    2.4480 O.3       1 <0>        -0.3031
      9 C8         -5.0278    1.3171    1.1430 C.ar      1 <0>         0.0467
     10 C9         -5.7255    0.2376    0.6377 C.ar      1 <0>        -0.1691
     11 C10        -5.5753   -0.1288   -0.6874 C.ar      1 <0>        -0.1289
     12 C11        -4.7177    0.5865   -1.5011 C.ar      1 <0>        -0.0997
     13 C12        -4.0113    1.6627   -1.0042 C.ar      1 <0>        -0.1050
     14 C13        -4.1615    2.0546    0.3270 C.ar      1 <0>         0.1861
     15 N1         -3.5187    3.1556    0.8960 N.pl3     1 <0>        -0.6542
     16 C14        -2.5536    3.8704    0.0453 C.3       1 <0>         0.1494
     17 H1         -2.4073    4.8841    0.4182 H         1 <0>         0.1139
     18 C15        -3.1377    3.9134   -1.3515 C.3       1 <0>        -0.0875
     19 H2         -4.1571    4.2991   -1.3454 H         1 <0>         0.1014
     20 C16        -3.0750    2.4356   -1.8495 C.3       1 <0>        -0.0344
     21 H3         -2.0659    2.0655   -1.6683 H         1 <0>         0.0855
     22 C17        -3.2472    2.5683   -3.3171 C.2       1 <0>        -0.1549
     23 C18        -2.7810    3.7548   -3.6913 C.2       1 <0>        -0.1618
     24 C19        -2.2989    4.5561   -2.4622 C.3       1 <0>        -0.1288
     25 C20        -1.2387    3.1343    0.0298 C.ar      1 <0>        -0.0871
     26 C21        -1.1555    1.8554    0.5507 C.ar      1 <0>        -0.0644
     27 C22         0.0531    1.1820    0.5405 C.ar      1 <0>        -0.0987
     28 C23         1.1748    1.7826    0.0005 C.ar      1 <0>        -0.0976
     29 C24         1.0910    3.0584   -0.5248 C.ar      1 <0>        -0.0989
     30 C25        -0.1158    3.7349   -0.5105 C.ar      1 <0>        -0.0263
     31 Cl1        -0.2209    5.3369   -1.1709 Cl        1 <0>        -0.0307
     32 Cl2        -2.5656    1.0983    1.2230 Cl        1 <0>         0.0077
     33 H4         -6.2344    2.7682    8.2330 H         1 <0>         0.1242
     34 H5         -7.8073    3.6253    6.5435 H         1 <0>         0.1253
     35 H6         -7.7367    2.7542    4.2415 H         1 <0>         0.1239
     36 H7         -4.5256    0.1630    5.3205 H         1 <0>         0.1220
     37 H8         -4.5907    1.0402    7.6204 H         1 <0>         0.1247
     38 H9         -7.0783    0.9200    2.7935 H         1 <0>         0.0696
     39 H10        -5.7353   -0.1583    3.2427 H         1 <0>         0.0662
     40 H11        -6.3906   -0.3217    1.2790 H         1 <0>         0.1266
     41 H12        -6.1249   -0.9697   -1.0839 H         1 <0>         0.1239
     42 H13        -4.5989    0.3003   -2.5357 H         1 <0>         0.1220
     43 H14        -3.1076    2.9145    1.7853 H         1 <0>         0.3760
     44 H15        -3.6785    1.8252   -3.9714 H         1 <0>         0.1292
     45 H16        -2.7536    4.1176   -4.7082 H         1 <0>         0.1269
     46 H17        -2.5245    5.6183   -2.5576 H         1 <0>         0.0738
     47 H18        -1.2344    4.3981   -2.2894 H         1 <0>         0.1145
     48 H19         0.1191    0.1850    0.9505 H         1 <0>         0.1398
     49 H20         2.1170    1.2548   -0.0112 H         1 <0>         0.1438
     50 H21         1.9677    3.5270   -0.9469 H         1 <0>         0.1433
@<TRIPOS>BOND
     1    1    6 ar
     2    1    2 ar
     3    1   33 1
     4    2    3 ar
     5    2   34 1
     6    3    4 ar
     7    3   35 1
     8    4    5 ar
     9    4    7 1
    10    5    6 ar
    11    5   36 1
    12    6   37 1
    13    7    8 1
    14    7   38 1
    15    7   39 1
    16    8    9 1
    17    9   14 ar
    18    9   10 ar
    19   10   11 ar
    20   10   40 1
    21   11   12 ar
    22   11   41 1
    23   12   13 ar
    24   12   42 1
    25   13   20 1
    26   13   14 ar
    27   14   15 1
    28   15   16 1
    29   15   43 1
    30   16   17 1
    31   16   18 1
    32   16   25 1
    33   18   19 1
    34   18   24 1
    35   18   20 1
    36   20   21 1
    37   20   22 1
    38   22   23 2
    39   22   44 1
    40   23   24 1
    41   23   45 1
    42   24   46 1
    43   24   47 1
    44   25   30 ar
    45   25   26 ar
    46   26   27 ar
    47   26   32 1
    48   27   28 ar
    49   27   48 1
    50   28   29 ar
    51   28   49 1
    52   29   30 ar
    53   29   50 1
    54   30   31 1
@<TRIPOS>MOLECULE
ZINC02303146
   44    45     0     0     0
SMALL
USER_CHARGES

@<TRIPOS>ATOM
      1 C1         -0.0187    1.5258    0.0104 C.3       1 <0>        -0.1477
      2 C2          0.0021   -0.0041    0.0020 C.3       1 <0>        -0.0600
      3 C3          0.7421   -0.5109    1.2415 C.3       1 <0>        -0.1464
      4 C4         -1.4117   -0.5257    0.0127 C.ar      1 <0>        -0.0709
      5 C5         -2.2583   -0.2035    1.0573 C.ar      1 <0>        -0.0981
      6 C6         -3.5547   -0.6808    1.0697 C.ar      1 <0>        -0.1482
      7 C7         -4.0069   -1.4836    0.0326 C.ar      1 <0>         0.0791
      8 C8         -3.1556   -1.8051   -1.0146 C.ar      1 <0>        -0.1059
      9 C9         -1.8618   -1.3210   -1.0249 C.ar      1 <0>        -0.0960
     10 O1         -5.2816   -1.9547    0.0427 O.3       1 <0>        -0.6442
     11 P1         -6.3435   -0.9861   -0.6828 P.3       1 <0>         2.4813
     12 O2         -5.9568   -0.8033   -2.0996 O.2       1 <0>        -1.0057
     13 C10        -6.3616    0.6324    0.1560 C.3       1 <0>        -0.8263
     14 N1         -7.8376   -1.6581   -0.6063 N.pl3     1 <0>        -1.0945
     15 C11        -8.9330   -0.9956   -1.1731 C.ar      1 <0>         0.2047
     16 C12        -8.7533    0.2278   -1.8051 C.ar      1 <0>        -0.1746
     17 C13        -9.8334    0.8812   -2.3646 C.ar      1 <0>        -0.0307
     18 C14       -11.0998    0.3145   -2.2952 C.ar      1 <0>        -0.1417
     19 C15       -11.2793   -0.9093   -1.6630 C.ar      1 <0>        -0.0798
     20 C16       -10.1980   -1.5648   -1.1083 C.ar      1 <0>        -0.1394
     21 S1        -12.4785    1.1483   -3.0086 S.3       1 <0>        -0.0195
     22 C17       -13.8795    0.0460   -2.6733 C.3       1 <0>         0.4513
     23 F1        -14.0216   -0.1206   -1.2916 F         1 <0>        -0.1642
     24 F2        -15.0493    0.6057   -3.1983 F         1 <0>        -0.1440
     25 F3        -13.6483   -1.1973   -3.2716 F         1 <0>        -0.1626
     26 H1          1.0039    1.9031    0.0027 H         1 <0>         0.0618
     27 H2         -0.5459    1.8868   -0.8726 H         1 <0>         0.0588
     28 H3         -0.5289    1.8773    0.9072 H         1 <0>         0.0564
     29 H4          0.5123   -0.3556   -0.8948 H         1 <0>         0.0837
     30 H5          0.2319   -0.1594    2.1383 H         1 <0>         0.0567
     31 H6          0.7568   -1.6008    1.2356 H         1 <0>         0.0581
     32 H7          1.7647   -0.1336    1.2338 H         1 <0>         0.0613
     33 H8         -1.9058    0.4215    1.8644 H         1 <0>         0.1330
     34 H9         -4.2154   -0.4294    1.8862 H         1 <0>         0.1292
     35 H10        -3.5054   -2.4299   -1.8231 H         1 <0>         0.1460
     36 H11        -1.2000   -1.5674   -1.8421 H         1 <0>         0.1378
     37 H12        -5.3686    1.0790    0.1052 H         1 <0>         0.1134
     38 H13        -7.0805    1.2881   -0.3352 H         1 <0>         0.1166
     39 H14        -6.6464    0.4977    1.1994 H         1 <0>         0.0942
     40 H15        -7.9623   -2.5146   -0.1684 H         1 <0>         0.4211
     41 H16        -7.7687    0.6684   -1.8587 H         1 <0>         0.1408
     42 H17        -9.6937    1.8328   -2.8558 H         1 <0>         0.1443
     43 H18       -12.2638   -1.3501   -1.6090 H         1 <0>         0.1309
     44 H19       -10.3368   -2.5184   -0.6207 H         1 <0>         0.1402
@<TRIPOS>BOND
     1    1    2 1
     2    1   26 1
     3    1   27 1
     4    1   28 1
     5    2    3 1
     6    2    4 1
     7    2   29 1
     8    3   30 1
     9    3   31 1
    10    3   32 1
    11    4    9 ar
    12    4    5 ar
    13    5    6 ar
    14    5   33 1
    15    6    7 ar
    16    6   34 1
    17    7    8 ar
    18    7   10 1
    19    8    9 ar
    20    8   35 1
    21    9   36 1
    22   10   11 1
    23   11   12 2
    24   11   13 1
    25   11   14 1
    26   13   37 1
    27   13   38 1
    28   13   39 1
    29   14   15 1
    30   14   40 1
    31   15   20 ar
    32   15   16 ar
    33   16   17 ar
    34   16   41 1
    35   17   18 ar
    36   17   42 1
    37   18   19 ar
    38   18   21 1
    39   19   20 ar
    40   19   43 1
    41   20   44 1
    42   21   22 1
    43   22   23 1
    44   22   24 1
    45   22   25 1
@<TRIPOS>MOLECULE
ZINC25551701
   76    79     0     0     0
SMALL
USER_CHARGES

@<TRIPOS>ATOM
      1 C1          1.0747    1.5967   -1.0235 C.3       1 <0>        -0.1555
      2 C2          0.5475    0.2856   -0.4370 C.3       1 <0>        -0.1039
      3 H1          0.8080   -0.5397   -1.0997 H         1 <0>         0.1008
      4 C3         -0.9739    0.3654   -0.2956 C.3       1 <0>        -0.1736
      5 C4         -1.5827    0.8611   -1.6088 C.3       1 <0>        -0.1234
      6 C5         -3.1090    0.8125   -1.5137 C.3       1 <0>        -0.1139
      7 C6         -3.7179    1.3082   -2.8269 C.3       1 <0>        -0.0974
      8 C7         -3.3517    0.3423   -3.9555 C.3       1 <0>        -0.1481
      9 C8         -5.2401    1.3778   -2.6890 C.3       1 <0>        -0.1491
     10 C9          1.1760    0.0530    0.9385 C.3       1 <0>        -0.0713
     11 H2          0.8366    0.8154    1.6397 H         1 <0>         0.0681
     12 C10         2.7140    0.0770    0.8308 C.3       1 <0>        -0.1322
     13 C11         3.2065   -1.3150    1.2829 C.3       1 <0>        -0.0989
     14 C12         1.9846   -2.2455    1.0283 C.3       1 <0>        -0.0616
     15 H3          2.0337   -3.1661    1.6100 H         1 <0>         0.1043
     16 C13         0.8098   -1.3434    1.4577 C.3       1 <0>        -0.0523
     17 C14        -0.5303   -1.8202    0.9480 C.3       1 <0>        -0.1180
     18 C15        -0.5080   -2.0489   -0.5644 C.3       1 <0>        -0.1766
     19 C16         0.5759   -3.0859   -0.8718 C.3       1 <0>        -0.0645
     20 H4          0.3888   -3.9788   -0.2752 H         1 <0>         0.0655
     21 C17         1.9423   -2.5146   -0.4765 C.3       1 <0>        -0.0709
     22 H5          2.1064   -1.5817   -1.0159 H         1 <0>         0.0939
     23 C18         3.0254   -3.5029   -0.8519 C.2       1 <0>         0.1413
     24 N1          3.8906   -3.9110   -0.0021 N.2       1 <0>        -0.3440
     25 O1          3.7573   -3.5668    1.3649 O.3       1 <0>        -0.3872
     26 C19         3.0285   -3.9836   -2.2915 C.3       1 <0>        -0.0608
     27 C20         1.9065   -3.2373   -3.0232 C.3       1 <0>        -0.0741
     28 H6          2.1104   -2.1668   -3.0011 H         1 <0>         0.0711
     29 C21         0.5546   -3.4642   -2.3440 C.3       1 <0>        -0.0472
     30 C22        -0.5529   -2.6953   -3.0675 C.3       1 <0>        -0.1060
     31 C23        -0.6143   -3.1465   -4.5285 C.3       1 <0>        -0.1262
     32 C24         0.7295   -2.8694   -5.2055 C.3       1 <0>        -0.1179
     33 C25         1.8458   -3.7121   -4.4766 C.3       1 <0>        -0.1172
     34 C26         0.2432   -4.9575   -2.4619 C.3       1 <0>        -0.1544
     35 C27         0.7570   -1.3000    2.9862 C.3       1 <0>        -0.1420
     36 H7          2.1585    1.5398   -1.1242 H         1 <0>         0.0535
     37 H8          0.6269    1.7623   -2.0034 H         1 <0>         0.0567
     38 H9          0.8141    2.4219   -0.3608 H         1 <0>         0.0514
     39 H10        -1.3694   -0.6231   -0.0621 H         1 <0>         0.1246
     40 H11        -1.2284    1.0575    0.5070 H         1 <0>         0.0552
     41 H12        -1.2627    1.8866   -1.7934 H         1 <0>         0.0596
     42 H13        -1.2492    0.2235   -2.4275 H         1 <0>         0.0635
     43 H14        -3.4290   -0.2130   -1.3291 H         1 <0>         0.0604
     44 H15        -3.4426    1.4501   -0.6950 H         1 <0>         0.0582
     45 H16        -3.3281    2.2999   -3.0566 H         1 <0>         0.0663
     46 H17        -3.7414   -0.6494   -3.7259 H         1 <0>         0.0536
     47 H18        -3.7854    0.6955   -4.8911 H         1 <0>         0.0504
     48 H19        -2.2672    0.2927   -4.0537 H         1 <0>         0.0569
     49 H20        -5.5010    2.0659   -1.8849 H         1 <0>         0.0525
     50 H21        -5.6738    1.7310   -3.6245 H         1 <0>         0.0526
     51 H22        -5.6298    0.3861   -2.4594 H         1 <0>         0.0534
     52 H23         3.0137    0.2627   -0.2006 H         1 <0>         0.0629
     53 H24         3.1225    0.8483    1.4838 H         1 <0>         0.0570
     54 H25         4.0600   -1.6320    0.6836 H         1 <0>         0.0615
     55 H26         3.4647   -1.3040    2.3419 H         1 <0>         0.0600
     56 H27        -0.7883   -2.7550    1.4456 H         1 <0>         0.0546
     57 H28        -1.2873   -1.0722    1.1837 H         1 <0>         0.0801
     58 H29        -1.4778   -2.4209   -0.8949 H         1 <0>         0.0663
     59 H30        -0.2782   -1.1137   -1.0750 H         1 <0>         0.1356
     60 H31         4.4581   -3.9206    1.9297 H         1 <0>         0.3754
     61 H32         3.9884   -3.7579   -2.7559 H         1 <0>         0.0878
     62 H33         2.8428   -5.0572   -2.3245 H         1 <0>         0.0919
     63 H34        -1.5095   -2.8955   -2.5848 H         1 <0>         0.0686
     64 H35        -0.3409   -1.6270   -3.0256 H         1 <0>         0.0636
     65 H36        -0.8286   -4.2144   -4.5701 H         1 <0>         0.0650
     66 H37        -1.4015   -2.5977   -5.0454 H         1 <0>         0.0595
     67 H38         0.6850   -3.1906   -6.2462 H         1 <0>         0.0580
     68 H39         0.9438   -1.8015   -5.1640 H         1 <0>         0.0646
     69 H40         2.8022   -3.5191   -4.9624 H         1 <0>         0.0620
     70 H41         1.6345   -4.7812   -4.5012 H         1 <0>         0.0731
     71 H42        -0.7286   -5.1626   -2.0128 H         1 <0>         0.0516
     72 H43         0.2248   -5.2429   -3.5138 H         1 <0>         0.0650
     73 H44         1.0115   -5.5309   -1.9432 H         1 <0>         0.0523
     74 H45        -0.0133   -0.5970    3.3033 H         1 <0>         0.0511
     75 H46         0.5229   -2.2930    3.3700 H         1 <0>         0.0511
     76 H47         1.7237   -0.9791    3.3742 H         1 <0>         0.0556
@<TRIPOS>BOND
     1    1    2 1
     2    1   36 1
     3    1   37 1
     4    1   38 1
     5    2    3 1
     6    2    4 1
     7    2   10 1
     8    4    5 1
     9    4   39 1
    10    4   40 1
    11    5    6 1
    12    5   41 1
    13    5   42 1
    14    6    7 1
    15    6   43 1
    16    6   44 1
    17    7    8 1
    18    7    9 1
    19    7   45 1
    20    8   46 1
    21    8   47 1
    22    8   48 1
    23    9   49 1
    24    9   50 1
    25    9   51 1
    26   10   11 1
    27   10   16 1
    28   10   12 1
    29   12   13 1
    30   12   52 1
    31   12   53 1
    32   13   14 1
    33   13   54 1
    34   13   55 1
    35   14   15 1
    36   14   21 1
    37   14   16 1
    38   16   17 1
    39   16   35 1
    40   17   18 1
    41   17   56 1
    42   17   57 1
    43   18   19 1
    44   18   58 1
    45   18   59 1
    46   19   20 1
    47   19   29 1
    48   19   21 1
    49   21   22 1
    50   21   23 1
    51   23   24 2
    52   23   26 1
    53   24   25 1
    54   25   60 1
    55   26   27 1
    56   26   61 1
    57   26   62 1
    58   27   28 1
    59   27   33 1
    60   27   29 1
    61   29   30 1
    62   29   34 1
    63   30   31 1
    64   30   63 1
    65   30   64 1
    66   31   32 1
    67   31   65 1
    68   31   66 1
    69   32   33 1
    70   32   67 1
    71   32   68 1
    72   33   69 1
    73   33   70 1
    74   34   71 1
    75   34   72 1
    76   34   73 1
    77   35   74 1
    78   35   75 1
    79   35   76 1
@<TRIPOS>MOLECULE
ZINC12211522
   39    42     0     0     0
SMALL
USER_CHARGES

@<TRIPOS>ATOM
      1 C1         -1.0896    1.1088   -3.6370 C.3       1 <0>        -0.1474
      2 S1         -0.8988   -0.5956   -3.0463 S.3       1 <0>         0.0260
      3 C2         -2.2919   -0.8412   -1.9958 C.ar      1 <0>         0.3571
      4 N1         -2.4504   -2.0106   -1.3868 N.ar      1 <0>        -0.5554
      5 C3         -3.4753   -2.2534   -0.5873 C.ar      1 <0>         0.4907
      6 C4         -4.4435   -1.2334   -0.3682 C.ar      1 <0>        -0.2393
      7 C5         -5.6473   -1.2780    0.4650 C.2       1 <0>        -0.0827
      8 C6         -6.4064   -0.1649    0.5029 C.2       1 <0>        -0.1424
      9 S2         -5.5793    0.9955   -0.5518 S.3       1 <0>         0.1233
     10 C7         -4.2111   -0.0199   -1.0452 C.ar      1 <0>         0.1601
     11 N2         -3.1595    0.1472   -1.8239 N.ar      1 <0>        -0.5185
     12 C8         -7.6759    0.0425    1.2716 C.3       1 <0>        -0.0416
     13 C9         -8.1964   -1.3284    1.7266 C.3       1 <0>        -0.1153
     14 C10        -7.0367   -2.1114    2.3492 C.3       1 <0>        -0.1195
     15 C11        -6.0423   -2.5187    1.2614 C.3       1 <0>        -0.0741
     16 N3         -3.6054   -3.4858    0.0291 N.pl3     1 <0>        -0.6452
     17 C12        -2.5862   -4.4355   -0.0854 C.ar      1 <0>         0.1786
     18 C13        -1.2570   -4.0325   -0.0901 C.ar      1 <0>        -0.0982
     19 C14        -0.2512   -4.9738   -0.2029 C.ar      1 <0>        -0.0020
     20 C15        -0.5674   -6.3167   -0.3115 C.ar      1 <0>        -0.1167
     21 C16        -1.8909   -6.7210   -0.3070 C.ar      1 <0>        -0.0026
     22 C17        -2.9006   -5.7844   -0.1887 C.ar      1 <0>        -0.1352
     23 Cl1        -2.2832   -8.4065   -0.4440 Cl        1 <0>        -0.0490
     24 Cl2         1.4104   -4.4710   -0.2089 Cl        1 <0>        -0.0466
     25 H1         -0.2635    1.3571   -4.3034 H         1 <0>         0.1150
     26 H2         -2.0323    1.2031   -4.1762 H         1 <0>         0.0917
     27 H3         -1.0878    1.7905   -2.7865 H         1 <0>         0.0919
     28 H4         -7.4797    0.6680    2.1424 H         1 <0>         0.0895
     29 H5         -8.4172    0.5232    0.6332 H         1 <0>         0.0876
     30 H6         -8.9852   -1.1929    2.4665 H         1 <0>         0.0797
     31 H7         -8.5871   -1.8746    0.8680 H         1 <0>         0.0710
     32 H8         -6.5321   -1.4865    3.0861 H         1 <0>         0.0709
     33 H9         -7.4244   -3.0050    2.8384 H         1 <0>         0.0758
     34 H10        -6.5058   -3.2473    0.5963 H         1 <0>         0.0842
     35 H11        -5.1557   -2.9543    1.7223 H         1 <0>         0.0748
     36 H12        -4.4039   -3.6904    0.5405 H         1 <0>         0.4261
     37 H13        -1.0097   -2.9845   -0.0061 H         1 <0>         0.1478
     38 H14         0.2200   -7.0504   -0.4002 H         1 <0>         0.1475
     39 H15        -3.9332   -6.1009   -0.1808 H         1 <0>         0.1424
@<TRIPOS>BOND
     1    1    2 1
     2    1   25 1
     3    1   26 1
     4    1   27 1
     5    2    3 1
     6    3   11 ar
     7    3    4 ar
     8    4    5 ar
     9    5    6 ar
    10    5   16 1
    11    6   10 ar
    12    6    7 1
    13    7   15 1
    14    7    8 2
    15    8    9 1
    16    8   12 1
    17    9   10 1
    18   10   11 ar
    19   12   13 1
    20   12   28 1
    21   12   29 1
    22   13   14 1
    23   13   30 1
    24   13   31 1
    25   14   15 1
    26   14   32 1
    27   14   33 1
    28   15   34 1
    29   15   35 1
    30   16   17 1
    31   16   36 1
    32   17   22 ar
    33   17   18 ar
    34   18   19 ar
    35   18   37 1
    36   19   20 ar
    37   19   24 1
    38   20   21 ar
    39   20   38 1
    40   21   22 ar
    41   21   23 1
    42   22   39 1
@<TRIPOS>MOLECULE
ZINC35694218
   59    62     0     0     0
SMALL
USER_CHARGES

@<TRIPOS>ATOM
      1 C1         -0.1727    1.5541    0.0837 C.3       1 <0>        -0.1500
      2 C2         -0.3065    0.0382    0.2424 C.3       1 <0>         0.0661
      3 O1          0.5042   -0.3997    1.3347 O.3       1 <0>        -0.3535
      4 C3          0.4991   -1.7227    1.6107 C.2       1 <0>         0.5360
      5 O2         -0.1774   -2.4826    0.9396 O.2       1 <0>        -0.5481
      6 C4          1.2708   -2.2202    2.6677 C.2       1 <0>        -0.3935
      7 C5          1.1717   -3.5401    3.0643 C.2       1 <0>         0.3033
      8 N1          1.9072   -3.9966    4.0648 N.2       1 <0>        -0.5961
      9 C6          2.7688   -3.2767    4.7536 C.2       1 <0>         0.3204
     10 N2          3.0153   -1.9527    4.5201 N.pl3     1 <0>        -0.5139
     11 C7          2.2452   -1.3325    3.4092 C.3       1 <0>         0.2606
     12 H1          2.9560   -0.9356    2.6844 H         1 <0>         0.0733
     13 C8          1.4731   -0.1701    3.9784 C.ar      1 <0>        -0.0603
     14 C9          0.6381   -0.3604    5.0636 C.ar      1 <0>        -0.0802
     15 C10        -0.0702    0.7053    5.5861 C.ar      1 <0>        -0.1120
     16 C11         0.0564    1.9625    5.0227 C.ar      1 <0>        -0.0315
     17 C12         0.8922    2.1523    3.9366 C.ar      1 <0>        -0.1124
     18 C13         1.6044    1.0870    3.4186 C.ar      1 <0>        -0.0617
     19 Cl1        -0.8334    3.3013    5.6780 Cl        1 <0>        -0.0863
     20 C14         3.9492   -1.3367    5.3292 C.2       1 <0>         0.2288
     21 C15         4.5435   -2.0863    6.2837 C.2       1 <0>        -0.3026
     22 S1          3.7757   -3.6749    6.0360 S.3       1 <0>         0.1415
     23 C16         4.2854    0.0840    5.1582 C.2       1 <0>        -0.4657
     24 C17         5.1015    0.6937    6.0392 C.2       1 <0>         0.5052
     25 O3          5.6992   -0.0262    7.0197 O.3       1 <0>        -0.6988
     26 N3          5.3299    2.0561    5.9433 N.pl3     1 <0>        -0.6292
     27 C18         4.6253    2.8475    4.9316 C.3       1 <0>         0.1050
     28 C19         6.2763    2.7060    6.8533 C.3       1 <0>         0.1676
     29 C20         7.6270    2.7981    6.1916 C.ar      1 <0>        -0.0908
     30 C21         8.5017    1.7295    6.2542 C.ar      1 <0>        -0.0897
     31 C22         9.7407    1.8140    5.6471 C.ar      1 <0>        -0.1263
     32 C23        10.1050    2.9670    4.9771 C.ar      1 <0>        -0.1288
     33 C24         9.2300    4.0353    4.9138 C.ar      1 <0>        -0.1304
     34 C25         7.9892    3.9492    5.5172 C.ar      1 <0>        -0.1163
     35 C26         0.2190   -4.4659    2.3526 C.3       1 <0>        -0.1073
     36 H2          0.8690    1.8083   -0.1122 H         1 <0>         0.0630
     37 H3         -0.7910    1.8881   -0.7495 H         1 <0>         0.0711
     38 H4         -0.5006    2.0457    0.9996 H         1 <0>         0.0649
     39 H5         -1.3481   -0.2160    0.4383 H         1 <0>         0.0581
     40 H6          0.0215   -0.4534   -0.6735 H         1 <0>         0.0582
     41 H7          0.5391   -1.3419    5.5031 H         1 <0>         0.1134
     42 H8         -0.7228    0.5565    6.4337 H         1 <0>         0.1252
     43 H9          0.9912    3.1334    3.4962 H         1 <0>         0.1270
     44 H10         2.2605    1.2360    2.5737 H         1 <0>         0.1254
     45 H11         5.2903   -1.7974    7.0084 H         1 <0>         0.2378
     46 H12         3.8779    0.6390    4.3260 H         1 <0>         0.0941
     47 H13         3.6888    3.2185    5.3481 H         1 <0>         0.0363
     48 H14         5.2481    3.6899    4.6307 H         1 <0>         0.0471
     49 H15         4.4147    2.2229    4.0635 H         1 <0>         0.0641
     50 H16         5.9200    3.7079    7.0931 H         1 <0>         0.0596
     51 H17         6.3595    2.1211    7.7693 H         1 <0>         0.0911
     52 H18         8.2171    0.8287    6.7776 H         1 <0>         0.1329
     53 H19        10.4244    0.9794    5.6966 H         1 <0>         0.1165
     54 H20        11.0733    3.0333    4.5035 H         1 <0>         0.1140
     55 H21         9.5147    4.9362    4.3906 H         1 <0>         0.1143
     56 H22         7.3042    4.7824    5.4645 H         1 <0>         0.1144
     57 H23         0.7024   -4.8716    1.4639 H         1 <0>         0.0823
     58 H24        -0.0603   -5.2821    3.0189 H         1 <0>         0.0644
     59 H25        -0.6741   -3.9136    2.0603 H         1 <0>         0.1023
@<TRIPOS>BOND
     1    1    2 1
     2    1   36 1
     3    1   37 1
     4    1   38 1
     5    2    3 1
     6    2   39 1
     7    2   40 1
     8    3    4 1
     9    4    5 2
    10    4    6 1
    11    6   11 1
    12    6    7 2
    13    7    8 1
    14    7   35 1
    15    8    9 2
    16    9   22 1
    17    9   10 1
    18   10   11 1
    19   10   20 1
    20   11   12 1
    21   11   13 1
    22   13   18 ar
    23   13   14 ar
    24   14   15 ar
    25   14   41 1
    26   15   16 ar
    27   15   42 1
    28   16   17 ar
    29   16   19 1
    30   17   18 ar
    31   17   43 1
    32   18   44 1
    33   20   21 2
    34   20   23 1
    35   21   22 1
    36   21   45 1
    37   23   24 2
    38   23   46 1
    39   24   25 1
    40   24   26 1
    41   26   27 1
    42   26   28 1
    43   27   47 1
    44   27   48 1
    45   27   49 1
    46   28   29 1
    47   28   50 1
    48   28   51 1
    49   29   34 ar
    50   29   30 ar
    51   30   31 ar
    52   30   52 1
    53   31   32 ar
    54   31   53 1
    55   32   33 ar
    56   32   54 1
    57   33   34 ar
    58   33   55 1
    59   34   56 1
    60   35   57 1
    61   35   58 1
    62   35   59 1
@<TRIPOS>MOLECULE
ZINC36061436
   66    69     0     0     0
SMALL
USER_CHARGES

@<TRIPOS>ATOM
      1 C1         -0.7500    1.1684    0.0141 C.3       1 <0>        -0.0905
      2 C2         -0.4113   -0.2928    0.1604 C.2       1 <0>         0.3062
      3 C3         -1.4234   -1.2332    0.1789 C.2       1 <0>        -0.3898
      4 C4         -1.0328   -2.6867    0.3273 C.3       1 <0>         0.2733
      5 H1         -1.4211   -3.2283   -0.5353 H         1 <0>         0.0682
      6 N1          0.4189   -2.9890    0.4421 N.pl3     1 <0>        -0.5056
      7 C5          1.0000   -4.2333    0.5837 C.2       1 <0>         0.2340
      8 C6          2.3473   -4.2898    0.6707 C.2       1 <0>        -0.3069
      9 S1          2.7968   -2.5699    0.5513 S.3       1 <0>         0.1226
     10 C7          1.2599   -1.9122    0.4014 C.2       1 <0>         0.3430
     11 N2          0.8534   -0.6668    0.2648 N.2       1 <0>        -0.5945
     12 C8          0.1820   -5.4535    0.6385 C.2       1 <0>        -0.4641
     13 C9          0.7586   -6.6390    0.9145 C.2       1 <0>         0.4994
     14 O1          2.1061   -6.7262    1.0316 O.3       1 <0>        -0.7042
     15 N3         -0.0252   -7.7686    1.0785 N.pl3     1 <0>        -0.7517
     16 C10         0.5898   -9.0338    1.4873 C.3       1 <0>         0.1797
     17 C11        -0.4498  -10.1248    1.4750 C.ar      1 <0>        -0.1016
     18 C12        -1.1957  -10.3808    2.6104 C.ar      1 <0>        -0.0751
     19 C13        -2.1497  -11.3807    2.6002 C.ar      1 <0>        -0.1562
     20 C14        -2.3582  -12.1261    1.4522 C.ar      1 <0>         0.0923
     21 C15        -1.6105  -11.8688    0.3156 C.ar      1 <0>        -0.1562
     22 C16        -0.6608  -10.8649    0.3266 C.ar      1 <0>        -0.0739
     23 F1         -3.2902  -13.1041    1.4412 F         1 <0>        -0.1440
     24 C17        -1.7171   -3.2280    1.5560 C.ar      1 <0>        -0.1033
     25 C18        -2.8009   -4.0753    1.4271 C.ar      1 <0>        -0.0414
     26 C19        -3.4294   -4.5718    2.5539 C.ar      1 <0>        -0.1624
     27 C20        -2.9753   -4.2222    3.8124 C.ar      1 <0>        -0.0830
     28 C21        -1.8920   -3.3759    3.9466 C.ar      1 <0>        -0.2162
     29 C22        -1.2561   -2.8804    2.8172 C.ar      1 <0>         0.1528
     30 O2         -0.1866   -2.0520    2.9466 O.3       1 <0>        -0.3024
     31 C23         0.2989   -1.8213    4.2706 C.3       1 <0>         0.0313
     32 C24        -2.7662   -0.8531    0.0646 C.2       1 <0>         0.5408
     33 O3         -3.0664    0.3280    0.0537 O.2       1 <0>        -0.5482
     34 O4         -3.7293   -1.7960   -0.0337 O.3       1 <0>        -0.3469
     35 C25        -5.0711   -1.3370   -0.2093 C.3       1 <0>         0.1209
     36 C26        -5.1576   -0.4884   -1.4795 C.3       1 <0>        -0.1819
     37 C27        -6.0092   -2.5392   -0.3343 C.3       1 <0>        -0.1386
     38 C28        -5.4831   -0.4919    0.9977 C.3       1 <0>        -0.1788
     39 H2          0.1680    1.7560    0.0151 H         1 <0>         0.0609
     40 H3         -1.2812    1.3260   -0.9246 H         1 <0>         0.0812
     41 H4         -1.3818    1.4800    0.8459 H         1 <0>         0.0867
     42 H5          2.9859   -5.1534    0.7839 H         1 <0>         0.2344
     43 H6         -0.8813   -5.3993    0.4574 H         1 <0>         0.0864
     44 H7         -0.9815   -7.7222    0.9228 H         1 <0>         0.3855
     45 H8          1.3919   -9.2885    0.7945 H         1 <0>         0.0659
     46 H9          0.9973   -8.9316    2.4931 H         1 <0>         0.0569
     47 H10        -1.0326   -9.7995    3.5059 H         1 <0>         0.1335
     48 H11        -2.7321  -11.5808    3.4874 H         1 <0>         0.1332
     49 H12        -1.7721  -12.4498   -0.5803 H         1 <0>         0.1334
     50 H13        -0.0805  -10.6610   -0.5612 H         1 <0>         0.1344
     51 H14        -3.1574   -4.3497    0.4453 H         1 <0>         0.1224
     52 H15        -4.2768   -5.2334    2.4511 H         1 <0>         0.1157
     53 H16        -3.4682   -4.6111    4.6912 H         1 <0>         0.1148
     54 H17        -1.5377   -3.1032    4.9297 H         1 <0>         0.1190
     55 H18         1.1007   -1.0835    4.2402 H         1 <0>         0.0940
     56 H19        -0.5131   -1.4498    4.8958 H         1 <0>         0.0485
     57 H20         0.6794   -2.7545    4.6858 H         1 <0>         0.0520
     58 H21        -4.8641   -1.0905   -2.3394 H         1 <0>         0.0550
     59 H22        -6.1811   -0.1382   -1.6135 H         1 <0>         0.0596
     60 H23        -4.4893    0.3681   -1.3905 H         1 <0>         0.0861
     61 H24        -6.0141   -3.0952    0.6032 H         1 <0>         0.0632
     62 H25        -7.0182   -2.1912   -0.5556 H         1 <0>         0.0690
     63 H26        -5.6636   -3.1876   -1.1394 H         1 <0>         0.0629
     64 H27        -4.8148    0.3646    1.0867 H         1 <0>         0.0853
     65 H28        -6.5066   -0.1417    0.8637 H         1 <0>         0.0581
     66 H29        -5.4215   -1.0964    1.9026 H         1 <0>         0.0548
@<TRIPOS>BOND
     1    1    2 1
     2    1   39 1
     3    1   40 1
     4    1   41 1
     5    2   11 1
     6    2    3 2
     7    3    4 1
     8    3   32 1
     9    4    5 1
    10    4    6 1
    11    4   24 1
    12    6   10 1
    13    6    7 1
    14    7    8 2
    15    7   12 1
    16    8    9 1
    17    8   42 1
    18    9   10 1
    19   10   11 2
    20   12   13 2
    21   12   43 1
    22   13   14 1
    23   13   15 1
    24   15   16 1
    25   15   44 1
    26   16   17 1
    27   16   45 1
    28   16   46 1
    29   17   22 ar
    30   17   18 ar
    31   18   19 ar
    32   18   47 1
    33   19   20 ar
    34   19   48 1
    35   20   21 ar
    36   20   23 1
    37   21   22 ar
    38   21   49 1
    39   22   50 1
    40   24   29 ar
    41   24   25 ar
    42   25   26 ar
    43   25   51 1
    44   26   27 ar
    45   26   52 1
    46   27   28 ar
    47   27   53 1
    48   28   29 ar
    49   28   54 1
    50   29   30 1
    51   30   31 1
    52   31   55 1
    53   31   56 1
    54   31   57 1
    55   32   33 2
    56   32   34 1
    57   34   35 1
    58   35   36 1
    59   35   37 1
    60   35   38 1
    61   36   58 1
    62   36   59 1
    63   36   60 1
    64   37   61 1
    65   37   62 1
    66   37   63 1
    67   38   64 1
    68   38   65 1
    69   38   66 1
@<TRIPOS>MOLECULE
ZINC39491507
   67    69     0     0     0
SMALL
USER_CHARGES

@<TRIPOS>ATOM
      1 C1         -5.0925   -2.2630    1.0912 C.3       1 <0>        -0.1520
      2 C2         -3.6167   -1.8622    1.1405 C.3       1 <0>        -0.1289
      3 C3         -2.8816   -2.4753   -0.0530 C.3       1 <0>        -0.1133
      4 C4         -1.4374   -1.9705   -0.0765 C.3       1 <0>        -0.1074
      5 H1         -1.4333   -0.8806   -0.0666 H         1 <0>         0.0821
      6 C5         -0.7427   -2.4716   -1.3443 C.3       1 <0>        -0.1135
      7 C6         -1.4096   -1.8478   -2.5718 C.3       1 <0>        -0.0945
      8 C7         -1.1866   -0.3341   -2.5594 C.3       1 <0>        -0.1484
      9 C8         -0.7984   -2.4429   -3.8420 C.3       1 <0>        -0.1482
     10 C9         -0.6939   -2.4946    1.1536 C.3       1 <0>         0.1153
     11 N1          0.6480   -1.9085    1.1996 N.pl3     1 <0>        -0.4751
     12 C10         1.7930   -2.5349    0.7874 C.2       1 <0>         0.0200
     13 C11         2.8477   -1.7243    0.9637 C.2       1 <0>        -0.0643
     14 C12         2.3352   -0.4759    1.5361 C.ar      1 <0>        -0.1085
     15 C13         0.9417   -0.6469    1.6573 C.ar      1 <0>         0.1321
     16 C14         0.1627    0.3867    2.1737 C.ar      1 <0>        -0.1501
     17 C15         0.7438    1.5592    2.5563 C.ar      1 <0>        -0.0525
     18 C16         2.1288    1.7432    2.4375 C.ar      1 <0>        -0.1813
     19 C17         2.9271    0.7202    1.9321 C.ar      1 <0>         0.0337
     20 C18         2.7416    3.0183    2.8557 C.2       1 <0>         0.5116
     21 O1          3.9416    3.1781    2.7529 O.2       1 <0>        -0.5091
     22 O2          1.9705    4.0056    3.3517 O.3       1 <0>        -0.3557
     23 C19         2.6306    5.2131    3.7367 C.3       1 <0>         0.0358
     24 C20         4.2850   -2.0379    0.6366 C.3       1 <0>         0.2140
     25 N2          4.9914   -2.4238    1.8606 N.2       1 <0>        -1.1732
     26 S1          6.5969   -2.8249    1.7985 S.o2      1 <0>         2.6602
     27 O3          6.6871   -4.0236    1.0406 O.2       1 <0>        -1.0715
     28 O4          7.2975   -1.6419    1.4393 O.2       1 <0>        -1.0495
     29 O5          7.0289   -3.1729    3.2158 O.3       1 <0>        -0.6814
     30 C21         6.5941   -4.3872    3.6438 C.ar      1 <0>         0.1166
     31 C22         5.3701   -4.4998    4.2871 C.ar      1 <0>        -0.1014
     32 C23         4.9300   -5.7353    4.7208 C.ar      1 <0>        -0.1122
     33 C24         5.7086   -6.8592    4.5147 C.ar      1 <0>        -0.1268
     34 C25         6.9291   -6.7496    3.8742 C.ar      1 <0>        -0.1137
     35 C26         7.3708   -5.5172    3.4331 C.ar      1 <0>        -0.1120
     36 H2         -5.6162   -1.8262    1.9415 H         1 <0>         0.0523
     37 H3         -5.5370   -1.8993    0.1648 H         1 <0>         0.0523
     38 H4         -5.1755   -3.3491    1.1322 H         1 <0>         0.0526
     39 H5         -3.5337   -0.7761    1.0995 H         1 <0>         0.0623
     40 H6         -3.1722   -2.2258    2.0670 H         1 <0>         0.0624
     41 H7         -2.8853   -3.5616    0.0370 H         1 <0>         0.0630
     42 H8         -3.3829   -2.1855   -0.9764 H         1 <0>         0.0698
     43 H9          0.3093   -2.1874   -1.3185 H         1 <0>         0.0731
     44 H10        -0.8246   -3.5572   -1.3986 H         1 <0>         0.0608
     45 H11        -2.4790   -2.0577   -2.5504 H         1 <0>         0.0683
     46 H12        -0.1173   -0.1242   -2.5809 H         1 <0>         0.0561
     47 H13        -1.6618    0.1103   -3.4340 H         1 <0>         0.0491
     48 H14        -1.6221    0.0898   -1.6546 H         1 <0>         0.0551
     49 H15        -0.9572   -3.5212   -3.8508 H         1 <0>         0.0521
     50 H16        -1.2735   -1.9984   -4.7165 H         1 <0>         0.0508
     51 H17         0.2710   -2.2329   -3.8634 H         1 <0>         0.0563
     52 H18        -1.2420   -2.2185    2.0544 H         1 <0>         0.0823
     53 H19        -0.6144   -3.5801    1.0950 H         1 <0>         0.0871
     54 H20         1.8406   -3.5343    0.3809 H         1 <0>         0.1618
     55 H21        -0.9052    0.2587    2.2708 H         1 <0>         0.1168
     56 H22         0.1311    2.3544    2.9546 H         1 <0>         0.1300
     57 H23         3.9941    0.8578    1.8374 H         1 <0>         0.1392
     58 H24         3.3629    4.9949    4.5140 H         1 <0>         0.0583
     59 H25         3.1359    5.6426    2.8717 H         1 <0>         0.0577
     60 H26         1.8965    5.9228    4.1182 H         1 <0>         0.0972
     61 H27         4.3238   -2.8587   -0.0795 H         1 <0>         0.0054
     62 H28         4.7600   -1.1567    0.2054 H         1 <0>         0.0065
     63 H29         4.7619   -3.6221    4.4490 H         1 <0>         0.1447
     64 H30         3.9773   -5.8235    5.2216 H         1 <0>         0.1265
     65 H31         5.3630   -7.8242    4.8548 H         1 <0>         0.1218
     66 H32         7.5356   -7.6289    3.7147 H         1 <0>         0.1255
     67 H33         8.3222   -5.4328    2.9290 H         1 <0>         0.1262
@<TRIPOS>BOND
     1    1    2 1
     2    1   36 1
     3    1   37 1
     4    1   38 1
     5    2    3 1
     6    2   39 1
     7    2   40 1
     8    3    4 1
     9    3   41 1
    10    3   42 1
    11    4    5 1
    12    4    6 1
    13    4   10 1
    14    6    7 1
    15    6   43 1
    16    6   44 1
    17    7    8 1
    18    7    9 1
    19    7   45 1
    20    8   46 1
    21    8   47 1
    22    8   48 1
    23    9   49 1
    24    9   50 1
    25    9   51 1
    26   10   11 1
    27   10   52 1
    28   10   53 1
    29   11   15 1
    30   11   12 1
    31   12   13 2
    32   12   54 1
    33   13   14 1
    34   13   24 1
    35   14   19 ar
    36   14   15 ar
    37   15   16 ar
    38   16   17 ar
    39   16   55 1
    40   17   18 ar
    41   17   56 1
    42   18   19 ar
    43   18   20 1
    44   19   57 1
    45   20   21 2
    46   20   22 1
    47   22   23 1
    48   23   58 1
    49   23   59 1
    50   23   60 1
    51   24   25 1
    52   24   61 1
    53   24   62 1
    54   25   26 1
    55   26   27 2
    56   26   28 2
    57   26   29 1
    58   29   30 1
    59   30   35 ar
    60   30   31 ar
    61   31   32 ar
    62   31   63 1
    63   32   33 ar
    64   32   64 1
    65   33   34 ar
    66   33   65 1
    67   34   35 ar
    68   34   66 1
    69   35   67 1
@<TRIPOS>MOLECULE
ZINC41120727
   59    63     0     0     0
SMALL
USER_CHARGES

@<TRIPOS>ATOM
      1 C1          2.4508    1.6214   -0.0125 C.3       1 <0>        -0.1162
      2 C2          2.0653    0.1646   -0.0101 C.ar      1 <0>        -0.0474
      3 C3          1.8518   -0.4956   -1.2063 C.ar      1 <0>        -0.1606
      4 C4          1.4981   -1.8320   -1.2074 C.ar      1 <0>        -0.0759
      5 C5          1.3566   -2.5114   -0.0127 C.ar      1 <0>        -0.2157
      6 C6          1.5702   -1.8515    1.1886 C.ar      1 <0>         0.1354
      7 C7          1.9311   -0.5117    1.1868 C.ar      1 <0>        -0.1542
      8 O1          1.4317   -2.5175    2.3650 O.3       1 <0>        -0.3121
      9 C8          1.0640   -3.8964    2.2905 C.3       1 <0>         0.0647
     10 C9          0.9569   -4.4727    3.7038 C.3       1 <0>        -0.1396
     11 C10         0.5632   -5.9490    3.6240 C.3       1 <0>         0.1099
     12 N1          0.4606   -6.5009    4.9772 N.pl3     1 <0>        -0.4652
     13 C11         1.4556   -7.1561    5.6192 C.2       1 <0>         0.0957
     14 C12         1.0204   -7.5393    6.8733 C.2       1 <0>        -0.1765
     15 C13        -0.3730   -7.0644    6.9885 C.ar      1 <0>        -0.0735
     16 C14        -0.6625   -6.4193    5.7760 C.ar      1 <0>         0.0880
     17 C15        -1.9200   -5.8550    5.5880 C.ar      1 <0>        -0.1249
     18 C16        -2.8646   -5.9301    6.5889 C.ar      1 <0>        -0.1032
     19 C17        -2.5749   -6.5643    7.7876 C.ar      1 <0>        -0.1395
     20 C18        -1.3374   -7.1375    7.9890 C.ar      1 <0>        -0.0698
     21 C19         1.7601   -8.2445    7.8494 C.2       1 <0>         0.0688
     22 C20         2.9074   -8.9298    7.4872 C.2       1 <0>        -0.0782
     23 C21         3.2624   -9.0517    6.1053 C.1       1 <0>         0.2929
     24 N2          3.5440   -9.1484    5.0090 N.1       1 <0>        -0.4566
     25 C22         3.7588   -9.5308    8.5187 C.2       1 <0>         0.4749
     26 O2          3.4237   -9.4157    9.8230 O.3       1 <0>        -0.6260
     27 N3          4.8513  -10.1833    8.1738 N.2       1 <0>        -0.6173
     28 C23         5.6349  -10.7364    9.1231 C.2       1 <0>         0.4493
     29 N4          5.4739  -10.7365   10.4336 N.2       1 <0>        -0.5771
     30 C24         6.3469  -11.3367   11.2677 C.ar      1 <0>         0.1508
     31 C25         6.2941  -11.4106   12.6799 C.ar      1 <0>        -0.1131
     32 C26         7.2714  -12.0644   13.3836 C.ar      1 <0>        -0.1030
     33 C27         8.3411  -12.6739   12.7438 C.ar      1 <0>        -0.1624
     34 C28         8.4249  -12.6215   11.3641 C.ar      1 <0>        -0.0483
     35 C29         7.4513  -11.9691   10.6503 C.ar      1 <0>        -0.1896
     36 S1          7.1511  -11.6620    8.9263 S.3       1 <0>        -0.1019
     37 H1          3.5365    1.7099   -0.0502 H         1 <0>         0.0740
     38 H2          2.0159    2.1109   -0.8840 H         1 <0>         0.0689
     39 H3          2.0788    2.0972    0.8948 H         1 <0>         0.0688
     40 H4          1.9612    0.0339   -2.1412 H         1 <0>         0.1230
     41 H5          1.3319   -2.3454   -2.1430 H         1 <0>         0.1249
     42 H6          1.0796   -3.5552   -0.0140 H         1 <0>         0.1271
     43 H7          2.1026    0.0031    2.1206 H         1 <0>         0.1304
     44 H8          0.1020   -3.9891    1.7865 H         1 <0>         0.0661
     45 H9          1.8218   -4.4448    1.7310 H         1 <0>         0.0677
     46 H10         1.9189   -4.3800    4.2079 H         1 <0>         0.0854
     47 H11         0.1991   -3.9243    4.2634 H         1 <0>         0.0846
     48 H12        -0.3988   -6.0418    3.1199 H         1 <0>         0.0938
     49 H13         1.3209   -6.4974    3.0644 H         1 <0>         0.0985
     50 H14         2.4379   -7.3494    5.2140 H         1 <0>         0.1813
     51 H15        -2.1559   -5.3581    4.6586 H         1 <0>         0.1169
     52 H16        -3.8396   -5.4905    6.4383 H         1 <0>         0.1241
     53 H17        -3.3241   -6.6154    8.5638 H         1 <0>         0.1247
     54 H18        -1.1133   -7.6302    8.9236 H         1 <0>         0.1301
     55 H19         1.4305   -8.2489    8.8778 H         1 <0>         0.1565
     56 H20         5.4749  -10.9464   13.2088 H         1 <0>         0.1192
     57 H21         7.2077  -12.1060   14.4609 H         1 <0>         0.1160
     58 H22         9.1010  -13.1839   13.3174 H         1 <0>         0.1201
     59 H23         9.2518  -13.0909   10.8518 H         1 <0>         0.1156
@<TRIPOS>BOND
     1    1    2 1
     2    1   37 1
     3    1   38 1
     4    1   39 1
     5    2    7 ar
     6    2    3 ar
     7    3    4 ar
     8    3   40 1
     9    4    5 ar
    10    4   41 1
    11    5    6 ar
    12    5   42 1
    13    6    7 ar
    14    6    8 1
    15    7   43 1
    16    8    9 1
    17    9   10 1
    18    9   44 1
    19    9   45 1
    20   10   11 1
    21   10   46 1
    22   10   47 1
    23   11   12 1
    24   11   48 1
    25   11   49 1
    26   12   16 1
    27   12   13 1
    28   13   14 2
    29   13   50 1
    30   14   15 1
    31   14   21 1
    32   15   20 ar
    33   15   16 ar
    34   16   17 ar
    35   17   18 ar
    36   17   51 1
    37   18   19 ar
    38   18   52 1
    39   19   20 ar
    40   19   53 1
    41   20   54 1
    42   21   22 2
    43   21   55 1
    44   22   23 1
    45   22   25 1
    46   23   24 3
    47   25   26 1
    48   25   27 2
    49   27   28 1
    50   28   36 1
    51   28   29 2
    52   29   30 1
    53   30   35 ar
    54   30   31 ar
    55   31   32 ar
    56   31   56 1
    57   32   33 ar
    58   32   57 1
    59   33   34 ar
    60   33   58 1
    61   34   35 ar
    62   34   59 1
    63   35   36 1
@<TRIPOS>MOLECULE
ZINC59364837
   55    57     0     0     0
SMALL
USER_CHARGES

@<TRIPOS>ATOM
      1 C1         -0.7266    1.5646   -0.8529 C.3       1 <0>        -0.1511
      2 C2         -0.7696    0.0378   -0.9423 C.3       1 <0>         0.0552
      3 O1         -2.0848   -0.4212   -0.6236 O.3       1 <0>        -0.3198
      4 C3         -2.2947   -1.7642   -0.6565 C.ar      1 <0>         0.0975
      5 C4         -1.2514   -2.6197   -0.9838 C.ar      1 <0>        -0.1896
      6 C5         -1.4592   -3.9822   -1.0190 C.ar      1 <0>        -0.0833
      7 C6         -2.7228   -4.5019   -0.7240 C.ar      1 <0>         0.0925
      8 C7         -3.7698   -3.6363   -0.3946 C.ar      1 <0>        -0.1259
      9 C8         -3.5502   -2.2756   -0.3571 C.ar      1 <0>        -0.1249
     10 N1         -2.9341   -5.8514   -0.7579 N.2       1 <0>        -0.4820
     11 C9         -3.6048   -6.4390    0.2149 C.2       1 <0>         0.3009
     12 C10        -3.9370   -7.8636    0.3776 C.2       1 <0>        -0.4198
     13 C11        -4.6520   -8.2049    1.4958 C.2       1 <0>         0.3438
     14 O2         -5.0005   -9.4913    1.7260 O.3       1 <0>        -0.5766
     15 C12        -5.0179   -7.1835    2.4053 C.2       1 <0>        -0.1011
     16 C13        -5.7215   -7.2998    3.5675 C.2       1 <0>        -0.0288
     17 C14        -6.1466   -6.0977    4.2902 C.ar      1 <0>        -0.0437
     18 C15        -6.1917   -4.8598    3.6350 C.ar      1 <0>        -0.0864
     19 C16        -6.5930   -3.7342    4.3213 C.ar      1 <0>        -0.0236
     20 C17        -6.9527   -3.8203    5.6580 C.ar      1 <0>        -0.0935
     21 C18        -6.9131   -5.0350    6.3174 C.ar      1 <0>        -0.0458
     22 C19        -6.5173   -6.1799    5.6432 C.ar      1 <0>         0.1269
     23 O3         -6.4831   -7.3738    6.2884 O.3       1 <0>        -0.3202
     24 C20        -5.2608   -7.7241    6.9405 C.3       1 <0>         0.0603
     25 C21        -5.4125   -9.0928    7.6073 C.3       1 <0>        -0.1503
     26 Cl1        -7.3661   -5.1277    7.9906 Cl        1 <0>        -0.0492
     27 Cl2        -6.6480   -2.2010    3.5089 Cl        1 <0>        -0.0518
     28 S1         -4.3328   -5.7095    1.6716 S.3       1 <0>        -0.1165
     29 C22        -3.5248   -8.8655   -0.6059 C.2       1 <0>         0.5376
     30 O4         -3.8158  -10.0352   -0.4413 O.2       1 <0>        -0.5302
     31 O5         -2.8220   -8.4921   -1.6953 O.3       1 <0>        -0.3410
     32 C23        -2.4528   -9.5227   -2.6138 C.3       1 <0>         0.0632
     33 C24        -1.6676   -8.9124   -3.7764 C.3       1 <0>        -0.1438
     34 H1          0.2766    1.9147   -1.0960 H         1 <0>         0.0749
     35 H2         -1.4407    1.9900   -1.5580 H         1 <0>         0.0645
     36 H3         -0.9852    1.8767    0.1589 H         1 <0>         0.0648
     37 H4         -0.5110   -0.2744   -1.9541 H         1 <0>         0.0588
     38 H5         -0.0555   -0.3877   -0.2371 H         1 <0>         0.0590
     39 H6         -0.2755   -2.2171   -1.2116 H         1 <0>         0.1243
     40 H7         -0.6471   -4.6468   -1.2744 H         1 <0>         0.1269
     41 H8         -4.7480   -4.0329   -0.1659 H         1 <0>         0.1318
     42 H9         -4.3574   -1.6062   -0.0988 H         1 <0>         0.1261
     43 H10        -5.9654   -8.2778    3.9554 H         1 <0>         0.1590
     44 H11        -5.9121   -4.7880    2.5942 H         1 <0>         0.1638
     45 H12        -7.2655   -2.9325    6.1875 H         1 <0>         0.1474
     46 H13        -4.4560   -7.7647    6.2065 H         1 <0>         0.0607
     47 H14        -5.0251   -6.9755    7.6970 H         1 <0>         0.0551
     48 H15        -5.6481   -9.8413    6.8508 H         1 <0>         0.0699
     49 H16        -4.4801   -9.3599    8.1047 H         1 <0>         0.0758
     50 H17        -6.2172   -9.0521    8.3413 H         1 <0>         0.0641
     51 H18        -1.8324  -10.2593   -2.1033 H         1 <0>         0.0525
     52 H19        -3.3511  -10.0071   -2.9966 H         1 <0>         0.0526
     53 H20        -1.3860   -9.6985   -4.4770 H         1 <0>         0.0658
     54 H21        -2.2881   -8.1758   -4.2870 H         1 <0>         0.0617
     55 H22        -0.7693   -8.4280   -3.3936 H         1 <0>         0.0614
@<TRIPOS>BOND
     1    1    2 1
     2    1   34 1
     3    1   35 1
     4    1   36 1
     5    2    3 1
     6    2   37 1
     7    2   38 1
     8    3    4 1
     9    4    9 ar
    10    4    5 ar
    11    5    6 ar
    12    5   39 1
    13    6    7 ar
    14    6   40 1
    15    7    8 ar
    16    7   10 1
    17    8    9 ar
    18    8   41 1
    19    9   42 1
    20   10   11 2
    21   11   28 1
    22   11   12 1
    23   12   13 2
    24   12   29 1
    25   13   14 1
    26   13   15 1
    27   15   16 2
    28   15   28 1
    29   16   17 1
    30   16   43 1
    31   17   22 ar
    32   17   18 ar
    33   18   19 ar
    34   18   44 1
    35   19   20 ar
    36   19   27 1
    37   20   21 ar
    38   20   45 1
    39   21   22 ar
    40   21   26 1
    41   22   23 1
    42   23   24 1
    43   24   25 1
    44   24   46 1
    45   24   47 1
    46   25   48 1
    47   25   49 1
    48   25   50 1
    49   29   30 2
    50   29   31 1
    51   31   32 1
    52   32   33 1
    53   32   51 1
    54   32   52 1
    55   33   53 1
    56   33   54 1
    57   33   55 1
@<TRIPOS>MOLECULE
ZINC01941094
   57    60     0     0     0
SMALL
USER_CHARGES
[3-(3,5-dimethylphenoxy)-4-oxo-2-(trifluoromethyl)chromen-7-yl] 3-(p-tolyl)prop-2-enoate
@<TRIPOS>ATOM
      1 C1        -10.2844    7.4463   -2.0270 C.3       1 <0>        -0.1223
      2 C2         -9.0252    6.6185   -2.0416 C.ar      1 <0>        -0.0622
      3 C3         -8.2065    6.6303   -3.1575 C.ar      1 <0>        -0.1263
      4 C4         -7.0529    5.8753   -3.1787 C.ar      1 <0>        -0.0804
      5 C5         -6.7110    5.0963   -2.0686 C.ar      1 <0>        -0.0990
      6 C6         -7.5464    5.0853   -0.9471 C.ar      1 <0>        -0.0872
      7 C7         -8.6937    5.8502   -0.9391 C.ar      1 <0>        -0.1257
      8 C8         -5.4815    4.2876   -2.0830 C.2       1 <0>         0.0183
      9 C9         -5.1549    3.5373   -1.0101 C.2       1 <0>        -0.2075
     10 C10        -3.9334    2.7339   -1.0244 C.2       1 <0>         0.5028
     11 O1         -3.2116    2.7419   -2.0034 O.2       1 <0>        -0.4881
     12 O2         -3.6068    1.9835    0.0485 O.3       1 <0>        -0.2881
     13 C11        -2.4071    1.3477    0.0403 C.ar      1 <0>         0.1655
     14 C12        -2.3624   -0.0413   -0.0628 C.ar      1 <0>        -0.1367
     15 C13        -1.1634   -0.6949   -0.0732 C.ar      1 <0>        -0.0056
     16 C14         0.0230    0.0341    0.0205 C.ar      1 <0>        -0.2165
     17 C15        -0.0123    1.4357    0.1253 C.ar      1 <0>         0.1648
     18 C16        -1.2393    2.0847    0.1394 C.ar      1 <0>        -0.1417
     19 O3          1.1402    2.1295    0.2162 O.3       1 <0>        -0.1857
     20 C17         2.3396    1.5333    0.2102 C.2       1 <0>         0.0513
     21 C18         2.4891    0.1971    0.1141 C.2       1 <0>        -0.0218
     22 C19         1.3366   -0.6330    0.0133 C.2       1 <0>         0.4153
     23 O4          1.4328   -1.8456   -0.0749 O.2       1 <0>        -0.4144
     24 O5          3.7333   -0.3549    0.1129 O.3       1 <0>        -0.2213
     25 C20         4.3555   -0.5228   -1.0832 C.ar      1 <0>         0.1154
     26 C21         3.7205   -0.1413   -2.2567 C.ar      1 <0>        -0.1994
     27 C22         4.3573   -0.3087   -3.4710 C.ar      1 <0>        -0.0393
     28 C23         5.6221   -0.8655   -3.5188 C.ar      1 <0>        -0.1457
     29 C24         6.2549   -1.2514   -2.3516 C.ar      1 <0>        -0.0422
     30 C25         5.6248   -1.0814   -1.1341 C.ar      1 <0>        -0.1384
     31 C26         7.6335   -1.8575   -2.4076 C.3       1 <0>        -0.1161
     32 C27         3.6707    0.1107   -4.7452 C.3       1 <0>        -0.1182
     33 C28         3.5734    2.3921    0.3158 C.3       1 <0>         0.5288
     34 F1          3.9985    2.7573   -0.9661 F         1 <0>        -0.1515
     35 F2          3.2787    3.5429    1.0548 F         1 <0>        -0.1553
     36 F3          4.5883    1.6736    0.9566 F         1 <0>        -0.1373
     37 H1        -11.1127    6.8545   -2.4168 H         1 <0>         0.0760
     38 H2        -10.5061    7.7525   -1.0047 H         1 <0>         0.0704
     39 H3        -10.1452    8.3304   -2.6491 H         1 <0>         0.0703
     40 H4         -8.4718    7.2327   -4.0137 H         1 <0>         0.1291
     41 H5         -6.4153    5.8852   -4.0503 H         1 <0>         0.1309
     42 H6         -7.2914    4.4828   -0.0878 H         1 <0>         0.1314
     43 H7         -9.3376    5.8463   -0.0721 H         1 <0>         0.1290
     44 H8         -4.8406    4.2947   -2.9523 H         1 <0>         0.1405
     45 H9         -5.7958    3.5302   -0.1409 H         1 <0>         0.1478
     46 H10        -3.2813   -0.6042   -0.1352 H         1 <0>         0.1542
     47 H11        -1.1334   -1.7715   -0.1533 H         1 <0>         0.1599
     48 H12        -1.2826    3.1608    0.2198 H         1 <0>         0.1565
     49 H13         2.7310    0.2899   -2.2202 H         1 <0>         0.1169
     50 H14         6.1163   -0.9996   -4.4697 H         1 <0>         0.1286
     51 H15         6.1197   -1.3826   -0.2227 H         1 <0>         0.1363
     52 H16         7.5508   -2.9399   -2.5051 H         1 <0>         0.0763
     53 H17         8.1726   -1.4554   -3.2654 H         1 <0>         0.0715
     54 H18         8.1743   -1.6154   -1.4926 H         1 <0>         0.0711
     55 H19         3.0897   -0.7244   -5.1367 H         1 <0>         0.0754
     56 H20         3.0070    0.9508   -4.5408 H         1 <0>         0.0670
     57 H21         4.4187    0.4090   -5.4798 H         1 <0>         0.0728
@<TRIPOS>BOND
     1    1    2 1
     2    1   37 1
     3    1   38 1
     4    1   39 1
     5    2    7 ar
     6    2    3 ar
     7    3    4 ar
     8    3   40 1
     9    4    5 ar
    10    4   41 1
    11    5    6 ar
    12    5    8 1
    13    6    7 ar
    14    6   42 1
    15    7   43 1
    16    8    9 2
    17    8   44 1
    18    9   10 1
    19    9   45 1
    20   10   11 2
    21   10   12 1
    22   12   13 1
    23   13   18 ar
    24   13   14 ar
    25   14   15 ar
    26   14   46 1
    27   15   16 ar
    28   15   47 1
    29   16   22 1
    30   16   17 ar
    31   17   18 ar
    32   17   19 1
    33   18   48 1
    34   19   20 1
    35   20   21 2
    36   20   33 1
    37   21   22 1
    38   21   24 1
    39   22   23 2
    40   24   25 1
    41   25   30 ar
    42   25   26 ar
    43   26   27 ar
    44   26   49 1
    45   27   28 ar
    46   27   32 1
    47   28   29 ar
    48   28   50 1
    49   29   30 ar
    50   29   31 1
    51   30   51 1
    52   31   52 1
    53   31   53 1
    54   31   54 1
    55   32   55 1
    56   32   56 1
    57   32   57 1
    58   33   34 1
    59   33   35 1
    60   33   36 1
@<TRIPOS>MOLECULE
ZINC02656158
   57    61     0     0     0
SMALL
USER_CHARGES
2-chloro-3-[[4-(3,4-dimethylphenyl)-5-phenyl-1,2,4-triazol-3-yl]sulfanylmethyl]-7-methoxy-quinoline
@<TRIPOS>ATOM
      1 C1          8.5396    7.1764   -8.0354 C.3       1 <0>        -0.1235
      2 C2          8.6833    7.3199   -6.5421 C.ar      1 <0>        -0.0644
      3 C3          8.7265    8.5786   -5.9708 C.ar      1 <0>        -0.1019
      4 C4          8.8590    8.7133   -4.6028 C.ar      1 <0>        -0.0955
      5 C5          8.9485    7.5834   -3.8007 C.ar      1 <0>         0.0980
      6 C6          8.9098    6.3214   -4.3776 C.ar      1 <0>        -0.0956
      7 C7          8.7722    6.1930   -5.7461 C.ar      1 <0>        -0.0717
      8 C8          8.7253    4.8232   -6.3727 C.3       1 <0>        -0.1204
      9 N1          9.0836    7.7169   -2.4119 N.pl3     1 <0>        -0.4135
     10 C9         10.1689    8.2151   -1.7244 C.2       1 <0>         0.2379
     11 N2          9.8755    8.1544   -0.4462 N.2       1 <0>        -0.2633
     12 N3          8.6981    7.6648   -0.2877 N.2       1 <0>        -0.2824
     13 C10         8.1648    7.3817   -1.4554 C.2       1 <0>         0.1648
     14 S1          6.5677    6.6921   -1.7358 S.3       1 <0>         0.0282
     15 C11         5.9900    6.5325   -0.0279 C.3       1 <0>        -0.0671
     16 C12         4.6020    5.9457   -0.0199 C.ar      1 <0>        -0.1385
     17 C13         4.4327    4.5915    0.0377 C.ar      1 <0>        -0.0028
     18 C14         3.1199    4.0852    0.0427 C.ar      1 <0>        -0.1359
     19 C15         2.8710    2.7036    0.1010 C.ar      1 <0>        -0.0461
     20 C16         1.5888    2.2499    0.1094 C.ar      1 <0>        -0.1862
     21 C17         0.5130    3.1418    0.0499 C.ar      1 <0>         0.1581
     22 C18         0.7213    4.4906   -0.0071 C.ar      1 <0>        -0.1447
     23 C19         2.0326    4.9931   -0.0119 C.ar      1 <0>         0.1877
     24 N4          2.2664    6.3087   -0.0666 N.ar      1 <0>        -0.4670
     25 C20         3.4897    6.7843   -0.0718 C.ar      1 <0>         0.2337
     26 Cl1         3.7287    8.5022   -0.1451 Cl        1 <0>        -0.0115
     27 O1         -0.7570    2.6601    0.0544 O.3       1 <0>        -0.3103
     28 C21        -0.9123    1.2409    0.1152 C.3       1 <0>         0.0232
     29 C22        11.4277    8.7173   -2.3142 C.ar      1 <0>        -0.0239
     30 C23        11.7661    8.3890   -3.6281 C.ar      1 <0>        -0.1013
     31 C24        12.9400    8.8654   -4.1742 C.ar      1 <0>        -0.1175
     32 C25        13.7863    9.6578   -3.4192 C.ar      1 <0>        -0.1014
     33 C26        13.4594    9.9826   -2.1145 C.ar      1 <0>        -0.1184
     34 C27        12.2860    9.5171   -1.5580 C.ar      1 <0>        -0.0726
     35 H1          9.5278    7.1518   -8.4948 H         1 <0>         0.0779
     36 H2          8.0104    6.2509   -8.2622 H         1 <0>         0.0759
     37 H3          7.9768    8.0226   -8.4292 H         1 <0>         0.0717
     38 H4          8.6568    9.4571   -6.5951 H         1 <0>         0.1372
     39 H5          8.8934    9.6966   -4.1573 H         1 <0>         0.1304
     40 H6          8.9832    5.4408   -3.7566 H         1 <0>         0.1319
     41 H7          9.7367    4.5034   -6.6232 H         1 <0>         0.0767
     42 H8          8.2846    4.1168   -5.6692 H         1 <0>         0.0703
     43 H9          8.1205    4.8587   -7.2788 H         1 <0>         0.0774
     44 H10         5.9716    7.5154    0.4428 H         1 <0>         0.1176
     45 H11         6.6645    5.8779    0.5241 H         1 <0>         0.1162
     46 H12         5.2834    3.9274    0.0788 H         1 <0>         0.1553
     47 H13         3.6938    2.0054    0.1431 H         1 <0>         0.1420
     48 H14         1.3991    1.1879    0.1586 H         1 <0>         0.1405
     49 H15        -0.1190    5.1678   -0.0485 H         1 <0>         0.1487
     50 H16        -0.4529    0.8639    1.0289 H         1 <0>         0.0595
     51 H17        -1.9733    0.9910    0.1122 H         1 <0>         0.1056
     52 H18        -0.4293    0.7852   -0.7492 H         1 <0>         0.0594
     53 H19        11.1087    7.7665   -4.2169 H         1 <0>         0.1261
     54 H20        13.2009    8.6159   -5.1921 H         1 <0>         0.1282
     55 H21        14.7061   10.0248   -3.8501 H         1 <0>         0.1283
     56 H22        14.1244   10.6015   -1.5305 H         1 <0>         0.1323
     57 H23        12.0320    9.7714   -0.5395 H         1 <0>         0.1367
@<TRIPOS>BOND
     1    1    2 1
     2    1   35 1
     3    1   36 1
     4    1   37 1
     5    2    7 ar
     6    2    3 ar
     7    3    4 ar
     8    3   38 1
     9    4    5 ar
    10    4   39 1
    11    5    6 ar
    12    5    9 1
    13    6    7 ar
    14    6   40 1
    15    7    8 1
    16    8   41 1
    17    8   42 1
    18    8   43 1
    19    9   13 1
    20    9   10 1
    21   10   11 2
    22   10   29 1
    23   11   12 1
    24   12   13 2
    25   13   14 1
    26   14   15 1
    27   15   16 1
    28   15   44 1
    29   15   45 1
    30   16   25 ar
    31   16   17 ar
    32   17   18 ar
    33   17   46 1
    34   18   23 ar
    35   18   19 ar
    36   19   20 ar
    37   19   47 1
    38   20   21 ar
    39   20   48 1
    40   21   22 ar
    41   21   27 1
    42   22   23 ar
    43   22   49 1
    44   23   24 ar
    45   24   25 ar
    46   25   26 1
    47   27   28 1
    48   28   50 1
    49   28   51 1
    50   28   52 1
    51   29   34 ar
    52   29   30 ar
    53   30   31 ar
    54   30   53 1
    55   31   32 ar
    56   31   54 1
    57   32   33 ar
    58   32   55 1
    59   33   34 ar
    60   33   56 1
    61   34   57 1
@<TRIPOS>MOLECULE
ZINC23459888
   66    70     0     0     0
SMALL
USER_CHARGES
1-cyclopentyl-2-[(3-fluoro-4-methyl-phenyl)methylsulfanyl]-5-[[(3R)-3-methyl-1-piperidyl]sulfonyl]benzimidazole
@<TRIPOS>ATOM
      1 C1          5.6233  -10.4116    4.2576 C.3       1 <0>        -0.1193
      2 C2          4.6198   -9.3198    3.9894 C.ar      1 <0>        -0.1082
      3 C3          3.5833   -9.1001    4.8770 C.ar      1 <0>        -0.0908
      4 C4          2.6657   -8.0953    4.6338 C.ar      1 <0>        -0.1052
      5 C5          2.7769   -7.3164    3.4969 C.ar      1 <0>        -0.0607
      6 C6          3.8122   -7.5342    2.6081 C.ar      1 <0>        -0.1306
      7 C7          4.7354   -8.5368    2.8535 C.ar      1 <0>         0.0977
      8 F1          5.7478   -8.7509    1.9850 F         1 <0>        -0.1344
      9 C8          1.7721   -6.2254    3.2300 C.3       1 <0>        -0.0768
     10 S1          0.3974   -6.8949    2.2615 S.3       1 <0>         0.0270
     11 C9         -0.5962   -5.4488    2.1002 C.2       1 <0>         0.2591
     12 N1         -0.3006   -4.2727    2.5971 N.2       1 <0>        -0.4835
     13 C10        -1.2825   -3.3863    2.2865 C.ar      1 <0>         0.0365
     14 C11        -1.4709   -2.0288    2.5584 C.ar      1 <0>         0.0510
     15 C12        -2.5988   -1.3888    2.0955 C.ar      1 <0>        -0.6820
     16 C13        -3.5525   -2.0829    1.3659 C.ar      1 <0>        -0.0173
     17 C14        -3.3785   -3.4224    1.0842 C.ar      1 <0>        -0.1226
     18 C15        -2.2488   -4.0829    1.5423 C.ar      1 <0>         0.1009
     19 N2         -1.7901   -5.3861    1.4388 N.pl3     1 <0>        -0.4711
     20 C16        -2.4608   -6.4913    0.7496 C.3       1 <0>         0.1290
     21 C17        -2.7160   -7.6510    1.7344 C.3       1 <0>        -0.1436
     22 C18        -2.4837   -8.9268    0.8860 C.3       1 <0>        -0.1195
     23 C19        -1.2874   -8.5272   -0.0130 C.3       1 <0>        -0.1198
     24 C20        -1.5532   -7.0481   -0.3612 C.3       1 <0>        -0.1338
     25 S2         -2.8357    0.3231    2.4387 S.o2      1 <0>         2.6938
     26 O1         -2.0757    0.6127    3.6040 O.2       1 <0>        -0.9526
     27 O2         -4.2342    0.5629    2.3622 O.2       1 <0>        -0.9520
     28 N3         -2.1414    1.1720    1.1978 N.pl3     1 <0>        -0.9953
     29 C21        -2.9232    1.5304    0.0066 C.3       1 <0>         0.1173
     30 C22        -2.1796    1.0363   -1.2383 C.3       1 <0>        -0.1366
     31 C23        -0.7542    1.5934   -1.2308 C.3       1 <0>        -0.1132
     32 C24        -0.0127    1.0858    0.0080 C.3       1 <0>        -0.1072
     33 H1          0.0051   -0.0140    0.0010 H         1 <0>         0.0743
     34 C25        -0.7311    1.5805    1.2674 C.3       1 <0>         0.1216
     35 C26         1.4224    1.6161   -0.0028 C.3       1 <0>        -0.1500
     36 H2          5.3685  -10.9206    5.1989 H         1 <0>         0.0745
     37 H3          6.6291   -9.9735    4.3382 H         1 <0>         0.0754
     38 H4          5.6048  -11.1377    3.4315 H         1 <0>         0.0752
     39 H5          3.4929   -9.7108    5.7631 H         1 <0>         0.1374
     40 H6          1.8589   -7.9212    5.3304 H         1 <0>         0.1342
     41 H7          3.9017   -6.9225    1.7225 H         1 <0>         0.1389
     42 H8          1.3917   -5.8355    4.1857 H         1 <0>         0.1126
     43 H9          2.2545   -5.4120    2.6682 H         1 <0>         0.1105
     44 H10        -0.7346   -1.4834    3.1300 H         1 <0>         0.1469
     45 H11        -4.4350   -1.5705    1.0122 H         1 <0>         0.1471
     46 H12        -4.1227   -3.9562    0.5118 H         1 <0>         0.1317
     47 H13        -3.3922   -6.0610    0.3531 H         1 <0>         0.1049
     48 H14        -2.0104   -7.5799    2.5753 H         1 <0>         0.0864
     49 H15        -3.7465   -7.5894    2.1143 H         1 <0>         0.0787
     50 H16        -2.2516   -9.7719    1.5507 H         1 <0>         0.0779
     51 H17        -3.3919   -9.1534    0.3083 H         1 <0>         0.0738
     52 H18        -0.3491   -8.6575    0.5461 H         1 <0>         0.0784
     53 H19        -1.2723   -9.1658   -0.9085 H         1 <0>         0.0769
     54 H20        -2.0643   -6.9592   -1.3312 H         1 <0>         0.0836
     55 H21        -0.6137   -6.4765   -0.3880 H         1 <0>         0.0792
     56 H22        -3.9141    1.0560    0.0620 H         1 <0>         0.0920
     57 H23        -3.0419    2.6230   -0.0390 H         1 <0>         0.0777
     58 H24        -2.1452   -0.0631   -1.2326 H         1 <0>         0.0671
     59 H25        -2.7052    1.3820   -2.1407 H         1 <0>         0.0773
     60 H26        -0.2255    1.2601   -2.1360 H         1 <0>         0.0653
     61 H27        -0.7902    2.6926   -1.2110 H         1 <0>         0.0669
     62 H28        -0.6695    2.6772    1.3258 H         1 <0>         0.0786
     63 H29        -0.2651    1.1390    2.1607 H         1 <0>         0.0917
     64 H30         1.9549    1.2510    0.8878 H         1 <0>         0.0590
     65 H31         1.4069    2.7160    0.0045 H         1 <0>         0.0592
     66 H32         1.9371    1.2626   -0.9084 H         1 <0>         0.0591
@<TRIPOS>BOND
     1    1    2 1
     2    1   36 1
     3    1   37 1
     4    1   38 1
     5    2    7 ar
     6    2    3 ar
     7    3    4 ar
     8    3   39 1
     9    4    5 ar
    10    4   40 1
    11    5    6 ar
    12    5    9 1
    13    6    7 ar
    14    6   41 1
    15    7    8 1
    16    9   10 1
    17    9   42 1
    18    9   43 1
    19   10   11 1
    20   11   19 1
    21   11   12 2
    22   12   13 1
    23   13   18 ar
    24   13   14 ar
    25   14   15 ar
    26   14   44 1
    27   15   16 ar
    28   15   25 1
    29   16   17 ar
    30   16   45 1
    31   17   18 ar
    32   17   46 1
    33   18   19 1
    34   19   20 1
    35   20   24 1
    36   20   21 1
    37   20   47 1
    38   21   22 1
    39   21   48 1
    40   21   49 1
    41   22   23 1
    42   22   50 1
    43   22   51 1
    44   23   24 1
    45   23   52 1
    46   23   53 1
    47   24   54 1
    48   24   55 1
    49   25   26 2
    50   25   27 2
    51   25   28 1
    52   28   34 1
    53   28   29 1
    54   29   30 1
    55   29   56 1
    56   29   57 1
    57   30   31 1
    58   30   58 1
    59   30   59 1
    60   31   32 1
    61   31   60 1
    62   31   61 1
    63   32   33 1
    64   32   34 1
    65   32   35 1
    66   34   62 1
    67   34   63 1
    68   35   64 1
    69   35   65 1
    70   35   66 1
@<TRIPOS>MOLECULE
ZINC35111665
   52    55     0     0     0
SMALL
USER_CHARGES

@<TRIPOS>ATOM
      1 C1         -0.0184    1.5028    0.0103 C.3       1 <0>        -0.1014
      2 C2          0.0021   -0.0041    0.0020 C.2       1 <0>         0.2539
      3 C3         -1.1756   -0.6976    0.0039 C.2       1 <0>        -0.2832
      4 C4         -1.1118   -2.2076   -0.0046 C.3       1 <0>         0.2946
      5 H1         -1.6416   -2.5705    0.8762 H         1 <0>         0.1095
      6 N1          0.2415   -2.8310   -0.0145 N.am      1 <0>        -0.5775
      7 C5          0.5021   -4.1447   -0.0233 C.2       1 <0>         0.5395
      8 O1         -0.3990   -4.9627   -0.0238 O.2       1 <0>        -0.4304
      9 C6          1.9100   -4.5685   -0.0328 C.2       1 <0>        -0.2036
     10 C7          2.4341   -5.8208   -0.0433 C.2       1 <0>         0.0641
     11 C8          1.5443   -6.9892   -0.0463 C.ar      1 <0>        -0.0753
     12 C9          0.4992   -7.0814    0.8819 C.ar      1 <0>         0.0390
     13 C10        -0.3322   -8.1828    0.8713 C.ar      1 <0>        -0.1092
     14 C11        -0.1356   -9.1945   -0.0523 C.ar      1 <0>        -0.0722
     15 C12         0.8946   -9.1122   -0.9728 C.ar      1 <0>        -0.1131
     16 C13         1.7320   -8.0155   -0.9812 C.ar      1 <0>         0.0026
     17 Cl1         3.0186   -7.9112   -2.1420 Cl        1 <0>        -0.0445
     18 Cl2         0.2510   -5.8143    2.0424 Cl        1 <0>        -0.0427
     19 S1          2.7438   -2.9891   -0.0280 S.3       1 <0>         0.1400
     20 C14         1.2971   -1.9484   -0.0148 C.2       1 <0>         0.4074
     21 N2          1.1634   -0.6462   -0.0125 N.2       1 <0>        -0.5112
     22 C15        -1.8551   -2.6960   -1.2211 C.2       1 <0>        -0.1665
     23 C16        -3.1178   -3.1805   -1.3125 C.2       1 <0>        -0.1027
     24 C17        -3.5972   -3.5735   -2.5480 C.2       1 <0>        -0.1552
     25 C18        -2.7905   -3.4628   -3.6316 C.2       1 <0>        -0.1624
     26 S2         -1.3040   -2.7794   -2.9172 S.3       1 <0>         0.0327
     27 C19        -2.4094   -0.0265    0.0139 C.2       1 <0>         0.5304
     28 O2         -2.4404    1.1912    0.0211 O.2       1 <0>        -0.5069
     29 O3         -3.5617   -0.7314    0.0156 O.3       1 <0>        -0.3448
     30 C20        -4.7795    0.0161    0.0260 C.3       1 <0>         0.0719
     31 C21        -5.9688   -0.9465    0.0264 C.3       1 <0>        -0.0929
     32 C22        -7.2686   -0.1511    0.1633 C.3       1 <0>        -0.1466
     33 C23        -5.9882   -1.7336   -1.2854 C.3       1 <0>        -0.1652
     34 H2          1.0042    1.8801    0.0026 H         1 <0>         0.0781
     35 H3         -0.5455    1.8639   -0.8728 H         1 <0>         0.0986
     36 H4         -0.5286    1.8543    0.9071 H         1 <0>         0.0988
     37 H5          3.5054   -5.9578   -0.0493 H         1 <0>         0.1682
     38 H6         -1.1385   -8.2556    1.5862 H         1 <0>         0.1439
     39 H7         -0.7900  -10.0537   -0.0546 H         1 <0>         0.1466
     40 H8          1.0409   -9.9068   -1.6895 H         1 <0>         0.1462
     41 H9         -3.7398   -3.2587   -0.4331 H         1 <0>         0.1381
     42 H10        -4.5994   -3.9633   -2.6483 H         1 <0>         0.1364
     43 H11        -2.9953   -3.7180   -4.6609 H         1 <0>         0.1860
     44 H12        -4.8159    0.6390    0.9198 H         1 <0>         0.0667
     45 H13        -4.8248    0.6492   -0.8601 H         1 <0>         0.0669
     46 H14        -5.8762   -1.6381    0.8638 H         1 <0>         0.0794
     47 H15        -7.3612    0.5405   -0.6741 H         1 <0>         0.0583
     48 H16        -8.1159   -0.8368    0.1635 H         1 <0>         0.0648
     49 H17        -7.2548    0.4097    1.0978 H         1 <0>         0.0579
     50 H18        -6.8355   -2.4194   -1.2851 H         1 <0>         0.0556
     51 H19        -6.0808   -1.0420   -2.1228 H         1 <0>         0.0528
     52 H20        -5.0622   -2.3003   -1.3828 H         1 <0>         0.0786
@<TRIPOS>BOND
     1    1    2 1
     2    1   34 1
     3    1   35 1
     4    1   36 1
     5    2   21 1
     6    2    3 2
     7    3    4 1
     8    3   27 1
     9    4    5 1
    10    4    6 1
    11    4   22 1
    12    6   20 1
    13    6    7 am
    14    7    8 2
    15    7    9 1
    16    9   10 2
    17    9   19 1
    18   10   11 1
    19   10   37 1
    20   11   16 ar
    21   11   12 ar
    22   12   13 ar
    23   12   18 1
    24   13   14 ar
    25   13   38 1
    26   14   15 ar
    27   14   39 1
    28   15   16 ar
    29   15   40 1
    30   16   17 1
    31   19   20 1
    32   20   21 2
    33   22   26 1
    34   22   23 2
    35   23   24 1
    36   23   41 1
    37   24   25 2
    38   24   42 1
    39   25   26 1
    40   25   43 1
    41   27   28 2
    42   27   29 1
    43   29   30 1
    44   30   31 1
    45   30   44 1
    46   30   45 1
    47   31   32 1
    48   31   33 1
    49   31   46 1
    50   32   47 1
    51   32   48 1
    52   32   49 1
    53   33   50 1
    54   33   51 1
    55   33   52 1
@<TRIPOS>MOLECULE
ZINC45924447
   56    60     0     0     0
SMALL
USER_CHARGES

@<TRIPOS>ATOM
      1 C1         -0.0184    1.5028    0.0103 C.3       1 <0>        -0.1163
      2 C2          0.0021   -0.0041    0.0020 C.ar      1 <0>        -0.0911
      3 C3          0.0057   -0.6888   -1.1991 C.ar      1 <0>        -0.1029
      4 C4          0.0245   -2.0707   -1.2067 C.ar      1 <0>        -0.1167
      5 C5          0.0400   -2.7685   -0.0132 C.ar      1 <0>        -0.0654
      6 C6          0.0373   -2.0840    1.1875 C.ar      1 <0>        -0.0836
      7 C7          0.0229   -0.7015    1.1951 C.ar      1 <0>        -0.0926
      8 C8          0.0538   -2.8445    2.4885 C.3       1 <0>        -0.0646
      9 S1          1.7705   -3.1275    3.0017 S.3       1 <0>         0.0172
     10 C9          1.6217   -4.0148    4.5167 C.2       1 <0>         0.2071
     11 N1          0.5001   -4.3711    5.0956 N.2       1 <0>        -0.2799
     12 N2          0.8194   -5.0555    6.2750 N.2       1 <0>        -0.3048
     13 C10         2.1290   -5.0962    6.3804 C.2       1 <0>         0.4649
     14 N3          2.6548   -4.4589    5.2937 N.pl3     1 <0>        -0.4277
     15 C11         4.0473   -4.3478    5.1291 C.2       1 <0>         0.1672
     16 C12         4.7739   -3.7417    4.1075 C.2       1 <0>        -0.1887
     17 C13         6.1239   -3.7514    4.1498 C.2       1 <0>        -0.1956
     18 S2          6.4913   -4.5769    5.5669 S.3       1 <0>         0.3719
     19 C14         4.8431   -4.9198    6.1214 C.2       1 <0>        -0.3231
     20 C15         4.2889   -5.5746    7.2292 C.2       1 <0>         0.6071
     21 O1          5.0129   -6.0632    8.0785 O.2       1 <0>        -0.4945
     22 N4          2.9460   -5.6520    7.3536 N.am      1 <0>        -0.5026
     23 C16         2.3539   -6.3353    8.5063 C.3       1 <0>         0.1244
     24 C17         2.1676   -7.8184    8.1797 C.3       1 <0>        -0.0649
     25 H1          3.1206   -8.2435    7.8648 H         1 <0>         0.0844
     26 C18         1.1450   -7.9676    7.0515 C.3       1 <0>        -0.1394
     27 C19         1.6739   -8.5443    9.4045 C.ar      1 <0>        -0.0767
     28 C20         0.4732   -8.1818    9.9858 C.ar      1 <0>        -0.1129
     29 C21         0.0203   -8.8477   11.1093 C.ar      1 <0>        -0.1172
     30 C22         0.7679   -9.8764   11.6513 C.ar      1 <0>        -0.1205
     31 C23         1.9681  -10.2395   11.0696 C.ar      1 <0>        -0.1179
     32 C24         2.4190   -9.5765    9.9435 C.ar      1 <0>        -0.1102
     33 C25         0.0595   -4.2753   -0.0215 C.3       1 <0>        -0.1239
     34 H2          1.0042    1.8801    0.0026 H         1 <0>         0.0719
     35 H3         -0.5455    1.8639   -0.8728 H         1 <0>         0.0681
     36 H4         -0.5286    1.8543    0.9071 H         1 <0>         0.0676
     37 H5         -0.0064   -0.1437   -2.1314 H         1 <0>         0.1255
     38 H6          0.0266   -2.6056   -2.1449 H         1 <0>         0.1270
     39 H7          0.0246   -0.1666    2.1333 H         1 <0>         0.1267
     40 H8         -0.4637   -2.2663    3.2539 H         1 <0>         0.1075
     41 H9         -0.4484   -3.8028    2.3555 H         1 <0>         0.1118
     42 H10         4.2603   -3.2663    3.2849 H         1 <0>         0.1530
     43 H11         6.8118   -3.3255    3.4343 H         1 <0>         0.2111
     44 H12         3.0139   -6.2330    9.3677 H         1 <0>         0.1086
     45 H13         1.3860   -5.8893    8.7352 H         1 <0>         0.1034
     46 H14         1.5021   -7.4425    6.1656 H         1 <0>         0.0481
     47 H15         1.0123   -9.0242    6.8188 H         1 <0>         0.0591
     48 H16         0.1920   -7.5424    7.3664 H         1 <0>         0.0700
     49 H17        -0.1108   -7.3781    9.5623 H         1 <0>         0.1239
     50 H18        -0.9174   -8.5640   11.5638 H         1 <0>         0.1231
     51 H19         0.4144  -10.3962   12.5296 H         1 <0>         0.1218
     52 H20         2.5524  -11.0430   11.4933 H         1 <0>         0.1227
     53 H21         3.3549   -9.8626    9.4868 H         1 <0>         0.1216
     54 H22         1.0917   -4.6253   -0.0291 H         1 <0>         0.0769
     55 H23        -0.4447   -4.6501    0.8693 H         1 <0>         0.0695
     56 H24        -0.4546   -4.6404   -0.9106 H         1 <0>         0.0707
@<TRIPOS>BOND
     1    1    2 1
     2    1   34 1
     3    1   35 1
     4    1   36 1
     5    2    7 ar
     6    2    3 ar
     7    3    4 ar
     8    3   37 1
     9    4    5 ar
    10    4   38 1
    11    5    6 ar
    12    5   33 1
    13    6    7 ar
    14    6    8 1
    15    7   39 1
    16    8    9 1
    17    8   40 1
    18    8   41 1
    19    9   10 1
    20   10   14 1
    21   10   11 2
    22   11   12 1
    23   12   13 2
    24   13   22 1
    25   13   14 1
    26   14   15 1
    27   15   19 2
    28   15   16 1
    29   16   17 2
    30   16   42 1
    31   17   18 1
    32   17   43 1
    33   18   19 1
    34   19   20 1
    35   20   21 2
    36   20   22 am
    37   22   23 1
    38   23   24 1
    39   23   44 1
    40   23   45 1
    41   24   25 1
    42   24   26 1
    43   24   27 1
    44   26   46 1
    45   26   47 1
    46   26   48 1
    47   27   32 ar
    48   27   28 ar
    49   28   29 ar
    50   28   49 1
    51   29   30 ar
    52   29   50 1
    53   30   31 ar
    54   30   51 1
    55   31   32 ar
    56   31   52 1
    57   32   53 1
    58   33   54 1
    59   33   55 1
    60   33   56 1
@<TRIPOS>MOLECULE
ZINC08998217
   45    47     0     0     0
SMALL
USER_CHARGES
2-(2,4-dichlorophenoxy)-N-[3-(2-ethoxyethyl)-6-fluoro-benzothiazol-2-ylidene]-acetamide
@<TRIPOS>ATOM
      1 C1         -6.6921   -3.7340   -1.7358 C.3       1 <0>        -0.1528
      2 C2         -6.1314   -2.3113   -1.6853 C.3       1 <0>         0.0629
      3 O1         -7.0064   -1.4815   -0.9186 O.3       1 <0>        -0.3904
      4 C3         -6.5723   -0.1244   -0.8086 C.3       1 <0>         0.0376
      5 C4         -7.5792    0.6669    0.0284 C.3       1 <0>         0.1007
      6 N1         -7.2088    2.0843    0.0266 N.pl3     1 <0>        -0.4906
      7 C5         -8.1937    3.0555    0.0017 C.ar      1 <0>         0.1102
      8 C6         -9.5865    2.8825   -0.0228 C.ar      1 <0>        -0.0793
      9 C7        -10.4298    3.9676   -0.0523 C.ar      1 <0>        -0.1106
     10 C8         -9.9340    5.2629   -0.0584 C.ar      1 <0>         0.1066
     11 C9         -8.5630    5.4617   -0.0342 C.ar      1 <0>        -0.0707
     12 C10        -7.7205    4.3756   -0.0051 C.ar      1 <0>        -0.1652
     13 S1         -5.9571    4.1761    0.0315 S.3       1 <0>         0.1853
     14 C11        -5.8985    2.4431    0.0537 C.2       1 <0>         0.4241
     15 N2         -4.8269    1.6536    0.0840 N.2       1 <0>        -0.6024
     16 C12        -3.6097    2.1861    0.1017 C.2       1 <0>         0.4913
     17 O2         -3.4745    3.3946    0.0901 O.2       1 <0>        -0.5000
     18 C13        -2.3967    1.2925    0.1361 C.3       1 <0>         0.0647
     19 O3         -1.2142    2.0948    0.1499 O.3       1 <0>        -0.2794
     20 C14        -0.0238    1.4390    0.1810 C.ar      1 <0>         0.1458
     21 C15         0.0050    0.0525    0.1979 C.ar      1 <0>        -0.1880
     22 C16         1.2157   -0.6124    0.2237 C.ar      1 <0>        -0.0623
     23 C17         2.3998    0.1037    0.2328 C.ar      1 <0>        -0.0626
     24 C18         2.3741    1.4868    0.2160 C.ar      1 <0>        -0.0627
     25 C19         1.1647    2.1561    0.1901 C.ar      1 <0>        -0.0571
     26 Cl1         1.1324    3.8917    0.1685 Cl        1 <0>        -0.0363
     27 Cl2         3.9196   -0.7347    0.2659 Cl        1 <0>        -0.0553
     28 F1        -10.7775    6.3178   -0.0871 F         1 <0>        -0.1235
     29 H1         -6.7726   -4.1289   -0.7231 H         1 <0>         0.0642
     30 H2         -7.6784   -3.7196   -2.1997 H         1 <0>         0.0628
     31 H3         -6.0247   -4.3669   -2.3207 H         1 <0>         0.0732
     32 H4         -6.0509   -1.9163   -2.6980 H         1 <0>         0.0481
     33 H5         -5.1452   -2.3257   -1.2214 H         1 <0>         0.0519
     34 H6         -6.5009    0.3159   -1.8032 H         1 <0>         0.0477
     35 H7         -5.5952   -0.0935   -0.3266 H         1 <0>         0.1077
     36 H8         -7.5755    0.2917    1.0518 H         1 <0>         0.0970
     37 H9         -8.5760    0.5513   -0.3973 H         1 <0>         0.1019
     38 H10       -10.0005    1.8850   -0.0187 H         1 <0>         0.1466
     39 H11       -11.4979    3.8086   -0.0707 H         1 <0>         0.1540
     40 H12        -8.1588    6.4632   -0.0382 H         1 <0>         0.1553
     41 H13        -2.3915    0.6529   -0.7465 H         1 <0>         0.1014
     42 H14        -2.4265    0.6738    1.0330 H         1 <0>         0.1029
     43 H15        -0.9186   -0.5072    0.1904 H         1 <0>         0.1481
     44 H16         1.2381   -1.6921    0.2365 H         1 <0>         0.1449
     45 H17         3.2993    2.0439    0.2228 H         1 <0>         0.1521
@<TRIPOS>BOND
     1    1    2 1
     2    1   29 1
     3    1   30 1
     4    1   31 1
     5    2    3 1
     6    2   32 1
     7    2   33 1
     8    3    4 1
     9    4    5 1
    10    4   34 1
    11    4   35 1
    12    5    6 1
    13    5   36 1
    14    5   37 1
    15    6   14 1
    16    6    7 1
    17    7   12 ar
    18    7    8 ar
    19    8    9 ar
    20    8   38 1
    21    9   10 ar
    22    9   39 1
    23   10   11 ar
    24   10   28 1
    25   11   12 ar
    26   11   40 1
    27   12   13 1
    28   13   14 1
    29   14   15 2
    30   15   16 1
    31   16   17 2
    32   16   18 1
    33   18   19 1
    34   18   41 1
    35   18   42 1
    36   19   20 1
    37   20   25 ar
    38   20   21 ar
    39   21   22 ar
    40   21   43 1
    41   22   23 ar
    42   22   44 1
    43   23   24 ar
    44   23   27 1
    45   24   25 ar
    46   24   45 1
    47   25   26 1
@<TRIPOS>MOLECULE
ZINC12579660
   50    51     0     0     0
SMALL
USER_CHARGES
[2-[(1S,2S,5R)-2-isopropyl-5-methyl-cyclohexoxy]-2-oxo-ethyl] (E)-3-(5-iodo-2-furyl)prop-2-enoate
@<TRIPOS>ATOM
      1 C1         -1.5134    3.6293   -2.4626 C.3       1 <0>        -0.1490
      2 C2         -0.7734    3.1225   -1.2231 C.3       1 <0>        -0.0901
      3 H1         -1.2836    3.4740   -0.3263 H         1 <0>         0.0745
      4 C3          0.6619    3.6521   -1.2340 C.3       1 <0>        -0.1152
      5 C4          1.4019    3.1452    0.0056 C.3       1 <0>        -0.1160
      6 C5          1.4227    1.6154   -0.0028 C.3       1 <0>        -0.0766
      7 H2          1.9329    1.2639   -0.8996 H         1 <0>         0.0907
      8 C6         -0.0127    1.0858    0.0080 C.3       1 <0>         0.0962
      9 H3          0.0021   -0.0041    0.0020 H         1 <0>         0.0913
     10 C7         -0.7527    1.5927   -1.2315 C.3       1 <0>        -0.1329
     11 O1         -0.6923    1.5541    1.2026 O.3       1 <0>        -0.3382
     12 C8         -1.6547    0.7648    1.7052 C.2       1 <0>         0.4621
     13 O2         -1.9205   -0.2827    1.1648 O.2       1 <0>        -0.4834
     14 C9         -2.4038    1.1851    2.9434 C.3       1 <0>         0.0752
     15 O3         -3.3693    0.1862    3.2781 O.3       1 <0>        -0.3298
     16 C10        -4.1303    0.4110    4.3704 C.2       1 <0>         0.5101
     17 O4         -3.9767    1.4286    5.0203 O.2       1 <0>        -0.5054
     18 C11        -5.1046   -0.5348    4.7591 C.2       1 <0>        -0.1921
     19 C12        -5.8701   -0.3087    5.8579 C.2       1 <0>         0.0355
     20 C13        -6.8458   -1.2559    6.2471 C.2       1 <0>        -0.0009
     21 C14        -7.6849   -1.1576    7.3389 C.2       1 <0>        -0.1445
     22 C15        -8.4812   -2.3117    7.3356 C.2       1 <0>        -0.1602
     23 C16        -8.1013   -3.0572    6.2723 C.2       1 <0>        -0.0205
     24 O5         -7.1187   -2.4200    5.6206 O.3       1 <0>        -0.1440
     25 I1         -8.9176   -4.9093    5.7316 I         1 <0>         0.0858
     26 C17         2.1627    1.1086    1.2367 C.3       1 <0>        -0.0940
     27 C18         2.1834   -0.4213    1.2283 C.3       1 <0>        -0.1542
     28 C19         3.5981    1.6381    1.2258 C.3       1 <0>        -0.1489
     29 H4         -1.0032    3.2778   -3.3594 H         1 <0>         0.0547
     30 H5         -2.5360    3.2520   -2.4549 H         1 <0>         0.0535
     31 H6         -1.5282    4.7192   -2.4566 H         1 <0>         0.0564
     32 H7          0.6472    4.7420   -1.2280 H         1 <0>         0.0649
     33 H8          1.1721    3.3005   -2.1308 H         1 <0>         0.0619
     34 H9          0.8917    3.4968    0.9024 H         1 <0>         0.0713
     35 H10         2.4245    3.5225   -0.0022 H         1 <0>         0.0691
     36 H11        -0.2425    1.2411   -2.1283 H         1 <0>         0.0822
     37 H12        -1.7753    1.2154   -1.2238 H         1 <0>         0.0693
     38 H13        -1.7026    1.3039    3.7695 H         1 <0>         0.1139
     39 H14        -2.9103    2.1323    2.7577 H         1 <0>         0.1138
     40 H15        -5.2408   -1.4377    4.1824 H         1 <0>         0.1474
     41 H16        -5.7338    0.5942    6.4345 H         1 <0>         0.1695
     42 H17        -7.7221   -0.3493    8.0542 H         1 <0>         0.1696
     43 H18        -9.2511   -2.5611    8.0507 H         1 <0>         0.1659
     44 H19         1.6525    1.4601    2.1335 H         1 <0>         0.0756
     45 H20         1.1608   -0.7986    1.2360 H         1 <0>         0.0529
     46 H21         2.6936   -0.7728    0.3315 H         1 <0>         0.0565
     47 H22         2.7106   -0.7824    2.1113 H         1 <0>         0.0572
     48 H23         3.5833    2.7280    1.2318 H         1 <0>         0.0594
     49 H24         4.1252    1.2771    2.1089 H         1 <0>         0.0550
     50 H25         4.1082    1.2866    0.3290 H         1 <0>         0.0546
@<TRIPOS>BOND
     1    1    2 1
     2    1   29 1
     3    1   30 1
     4    1   31 1
     5    2    3 1
     6    2   10 1
     7    2    4 1
     8    4    5 1
     9    4   32 1
    10    4   33 1
    11    5    6 1
    12    5   34 1
    13    5   35 1
    14    6    7 1
    15    6    8 1
    16    6   26 1
    17    8    9 1
    18    8   10 1
    19    8   11 1
    20   10   36 1
    21   10   37 1
    22   11   12 1
    23   12   13 2
    24   12   14 1
    25   14   15 1
    26   14   38 1
    27   14   39 1
    28   15   16 1
    29   16   17 2
    30   16   18 1
    31   18   19 2
    32   18   40 1
    33   19   20 1
    34   19   41 1
    35   20   24 1
    36   20   21 2
    37   21   22 1
    38   21   42 1
    39   22   23 2
    40   22   43 1
    41   23   24 1
    42   23   25 1
    43   26   27 1
    44   26   28 1
    45   26   44 1
    46   27   45 1
    47   27   46 1
    48   27   47 1
    49   28   48 1
    50   28   49 1
    51   28   50 1
@<TRIPOS>MOLECULE
ZINC35063495
   71    74     0     0     0
SMALL
USER_CHARGES

@<TRIPOS>ATOM
      1 C1         -1.0967    1.6574    1.6998 C.3       1 <0>        -0.1534
      2 C2         -1.0010    0.1505    1.4528 C.3       1 <0>        -0.1229
      3 C3         -0.1127   -0.4864    2.5235 C.3       1 <0>        -0.1157
      4 C4         -0.0169   -1.9933    2.2765 C.3       1 <0>        -0.1314
      5 C5          0.8713   -2.6301    3.3472 C.3       1 <0>         0.0958
      6 N1          0.9630   -4.0730    3.1107 N.am      1 <0>        -0.5995
      7 C6          2.0832   -4.6194    2.3409 C.3       1 <0>         0.1724
      8 H1          2.0351   -5.7082    2.3521 H         1 <0>         0.1278
      9 C7          2.0013   -4.1201    0.8969 C.3       1 <0>        -0.1629
     10 C8          3.3829   -4.1677    2.9556 C.2       1 <0>         0.3861
     11 N2          3.6749   -2.9031    2.9197 N.2       1 <0>        -0.4962
     12 C9          4.8266   -2.4237    3.4525 C.ar      1 <0>         0.1465
     13 C10         5.1407   -1.0635    3.4145 C.ar      1 <0>        -0.1051
     14 C11         6.3207   -0.6205    3.9681 C.ar      1 <0>        -0.0713
     15 C12         7.2049   -1.5099    4.5648 C.ar      1 <0>        -0.1326
     16 C13         6.9177   -2.8563    4.6143 C.ar      1 <0>        -0.0409
     17 C14         5.7280   -3.3254    4.0606 C.ar      1 <0>        -0.1920
     18 C15         5.3682   -4.7505    4.0849 C.2       1 <0>         0.5492
     19 O1          6.1009   -5.5790    4.5935 O.2       1 <0>        -0.4917
     20 N3          4.1882   -5.1050    3.5248 N.am      1 <0>        -0.4941
     21 C16         3.7953   -6.4494    3.5260 C.ar      1 <0>         0.0897
     22 C17         3.8292   -7.1852    2.3488 C.ar      1 <0>        -0.1066
     23 C18         3.4416   -8.5108    2.3533 C.ar      1 <0>        -0.1055
     24 C19         3.0201   -9.1054    3.5284 C.ar      1 <0>        -0.0610
     25 C20         2.9852   -8.3754    4.7023 C.ar      1 <0>        -0.1061
     26 C21         3.3765   -7.0509    4.7054 C.ar      1 <0>        -0.0887
     27 C22         2.5974  -10.5519    3.5296 C.3       1 <0>        -0.1221
     28 C23         0.0167   -4.8977    3.6015 C.2       1 <0>         0.5199
     29 O2         -0.9479   -4.4398    4.1766 O.2       1 <0>        -0.5218
     30 C24         0.1572   -6.3890    3.4356 C.3       1 <0>        -0.1146
     31 C25         0.0363   -6.7509    1.9540 C.3       1 <0>        -0.1207
     32 C26         0.1790   -8.2649    1.7855 C.3       1 <0>        -0.1273
     33 C27        -0.9244   -8.9721    2.5750 C.3       1 <0>        -0.1196
     34 C28        -0.8035   -8.6102    4.0567 C.3       1 <0>        -0.1202
     35 C29        -0.9462   -7.0962    4.2251 C.3       1 <0>        -0.0971
     36 H2         -0.1004    2.0971    1.6540 H         1 <0>         0.0534
     37 H3         -1.7295    2.1111    0.9370 H         1 <0>         0.0528
     38 H4         -1.5284    1.8375    2.6843 H         1 <0>         0.0532
     39 H5         -1.9973   -0.2892    1.4986 H         1 <0>         0.0599
     40 H6         -0.5692   -0.0296    0.4683 H         1 <0>         0.0601
     41 H7          0.8836   -0.0466    2.4777 H         1 <0>         0.0633
     42 H8         -0.5444   -0.3062    3.5080 H         1 <0>         0.0610
     43 H9         -1.0133   -2.4330    2.3224 H         1 <0>         0.0639
     44 H10         0.4148   -2.1734    1.2920 H         1 <0>         0.0669
     45 H11         1.8676   -2.1904    3.3014 H         1 <0>         0.1111
     46 H12         0.4396   -2.4500    4.3317 H         1 <0>         0.0745
     47 H13         2.8427   -4.5152    0.3276 H         1 <0>         0.0710
     48 H14         1.0677   -4.4589    0.4478 H         1 <0>         0.0777
     49 H15         2.0352   -3.0307    0.8867 H         1 <0>         0.0873
     50 H16         4.4612   -0.3625    2.9526 H         1 <0>         0.1421
     51 H17         6.5619    0.4318    3.9378 H         1 <0>         0.1373
     52 H18         8.1259   -1.1428    4.9932 H         1 <0>         0.1362
     53 H19         7.6093   -3.5432    5.0793 H         1 <0>         0.1391
     54 H20         4.1580   -6.7212    1.4306 H         1 <0>         0.1309
     55 H21         3.4675   -9.0834    1.4380 H         1 <0>         0.1370
     56 H22         2.6552   -8.8425    5.6184 H         1 <0>         0.1350
     57 H23         3.3533   -6.4825    5.6235 H         1 <0>         0.1263
     58 H24         3.4623  -11.1830    3.7339 H         1 <0>         0.0772
     59 H25         1.8427  -10.7093    4.3002 H         1 <0>         0.0726
     60 H26         2.1814  -10.8097    2.5557 H         1 <0>         0.0730
     61 H27         1.1311   -6.7059    3.8087 H         1 <0>         0.0954
     62 H28        -0.9376   -6.4340    1.5808 H         1 <0>         0.0720
     63 H29         0.8224   -6.2471    1.3915 H         1 <0>         0.0697
     64 H30         0.0928   -8.5228    0.7300 H         1 <0>         0.0666
     65 H31         1.1528   -8.5819    2.1587 H         1 <0>         0.0739
     66 H32        -1.8983   -8.6552    2.2019 H         1 <0>         0.0624
     67 H33        -0.8228  -10.0507    2.4550 H         1 <0>         0.0635
     68 H34        -1.5896   -9.1140    4.6191 H         1 <0>         0.0661
     69 H35         0.1704   -8.9271    4.4298 H         1 <0>         0.0632
     70 H36        -0.8600   -6.8383    5.2806 H         1 <0>         0.0661
     71 H37        -1.9200   -6.7792    3.8520 H         1 <0>         0.0723
@<TRIPOS>BOND
     1    1    2 1
     2    1   36 1
     3    1   37 1
     4    1   38 1
     5    2    3 1
     6    2   39 1
     7    2   40 1
     8    3    4 1
     9    3   41 1
    10    3   42 1
    11    4    5 1
    12    4   43 1
    13    4   44 1
    14    5    6 1
    15    5   45 1
    16    5   46 1
    17    6    7 1
    18    6   28 am
    19    7    8 1
    20    7    9 1
    21    7   10 1
    22    9   47 1
    23    9   48 1
    24    9   49 1
    25   10   20 1
    26   10   11 2
    27   11   12 1
    28   12   17 ar
    29   12   13 ar
    30   13   14 ar
    31   13   50 1
    32   14   15 ar
    33   14   51 1
    34   15   16 ar
    35   15   52 1
    36   16   17 ar
    37   16   53 1
    38   17   18 1
    39   18   19 2
    40   18   20 am
    41   20   21 1
    42   21   26 ar
    43   21   22 ar
    44   22   23 ar
    45   22   54 1
    46   23   24 ar
    47   23   55 1
    48   24   25 ar
    49   24   27 1
    50   25   26 ar
    51   25   56 1
    52   26   57 1
    53   27   58 1
    54   27   59 1
    55   27   60 1
    56   28   29 2
    57   28   30 1
    58   30   35 1
    59   30   31 1
    60   30   61 1
    61   31   32 1
    62   31   62 1
    63   31   63 1
    64   32   33 1
    65   32   64 1
    66   32   65 1
    67   33   34 1
    68   33   66 1
    69   33   67 1
    70   34   35 1
    71   34   68 1
    72   34   69 1
    73   35   70 1
    74   35   71 1
@<TRIPOS>MOLECULE
ZINC35847746
   59    62     0     0     0
SMALL
USER_CHARGES

@<TRIPOS>ATOM
      1 C1         -0.1474    1.4975   -0.2102 C.3       1 <0>        -0.1203
      2 C2         -0.0985   -0.0082   -0.1698 C.ar      1 <0>        -0.0606
      3 C3         -0.2620   -0.7354   -1.3346 C.ar      1 <0>        -0.1061
      4 C4         -0.2172   -2.1155   -1.3008 C.ar      1 <0>        -0.0919
      5 C5         -0.0078   -2.7725   -0.0958 C.ar      1 <0>         0.0921
      6 C6          0.1560   -2.0397    1.0719 C.ar      1 <0>        -0.0871
      7 C7          0.1155   -0.6596    1.0310 C.ar      1 <0>        -0.1058
      8 N1          0.0377   -4.1730   -0.0582 N.pl3     1 <0>        -0.4096
      9 C8         -0.8795   -5.0211    0.5232 C.2       1 <0>         0.2318
     10 N2         -0.4501   -6.2459    0.3257 N.2       1 <0>        -0.2537
     11 N3          0.6553   -6.2245   -0.3290 N.2       1 <0>        -0.2859
     12 C9          0.9990   -4.9842   -0.5963 C.2       1 <0>         0.1700
     13 S1          2.4322   -4.4634   -1.4791 S.3       1 <0>         0.0165
     14 C10         3.2703   -6.0138   -1.9089 C.3       1 <0>        -0.0620
     15 C11         4.5298   -5.7076   -2.6777 C.ar      1 <0>        -0.0810
     16 C12         4.4916   -5.6094   -4.0562 C.ar      1 <0>        -0.0934
     17 C13         5.6467   -5.3286   -4.7613 C.ar      1 <0>        -0.0917
     18 C14         6.8403   -5.1454   -4.0880 C.ar      1 <0>        -0.1047
     19 C15         6.8783   -5.2427   -2.7098 C.ar      1 <0>        -0.1170
     20 C16         5.7220   -5.5193   -2.0042 C.ar      1 <0>        -0.0658
     21 C17         5.7623   -5.6202   -0.5011 C.3       1 <0>        -0.1252
     22 C18         5.6053   -5.2225   -6.2640 C.3       1 <0>        -0.1156
     23 C19        -2.1132   -4.6264    1.2354 C.ar      1 <0>         0.0580
     24 C20        -2.7487   -5.5302    2.0874 C.ar      1 <0>        -0.1428
     25 C21        -3.9042   -5.1562    2.7531 C.ar      1 <0>         0.1704
     26 C22        -4.4301   -3.8849    2.5734 C.ar      1 <0>        -0.2835
     27 C23        -3.8016   -2.9832    1.7267 C.ar      1 <0>         0.1716
     28 C24        -2.6422   -3.3470    1.0619 C.ar      1 <0>        -0.1733
     29 O1         -4.3211   -1.7393    1.5538 O.3       1 <0>        -0.3092
     30 C25        -5.5152   -1.4290    2.2747 C.3       1 <0>         0.0250
     31 O2         -4.5240   -6.0358    3.5833 O.3       1 <0>        -0.3079
     32 C26        -5.7113   -5.5839    4.2377 C.3       1 <0>         0.0250
     33 H1          0.8547    1.8890   -0.3852 H         1 <0>         0.0775
     34 H2         -0.8085    1.8180   -1.0155 H         1 <0>         0.0720
     35 H3         -0.5239    1.8744    0.7407 H         1 <0>         0.0717
     36 H4         -0.4252   -0.2237   -2.2716 H         1 <0>         0.1369
     37 H5         -0.3453   -2.6829   -2.2107 H         1 <0>         0.1325
     38 H6          0.3191   -2.5480    2.0107 H         1 <0>         0.1303
     39 H7          0.2469   -0.0889    1.9384 H         1 <0>         0.1359
     40 H8          3.5236   -6.5547   -0.9971 H         1 <0>         0.1081
     41 H9          2.6096   -6.6258   -2.5229 H         1 <0>         0.1058
     42 H10         3.5592   -5.7525   -4.5821 H         1 <0>         0.1261
     43 H11         7.7430   -4.9267   -4.6390 H         1 <0>         0.1247
     44 H12         7.8107   -5.0999   -2.1839 H         1 <0>         0.1262
     45 H13         5.9720   -6.6499   -0.2116 H         1 <0>         0.0745
     46 H14         6.5448   -4.9675   -0.1141 H         1 <0>         0.0709
     47 H15         4.7995   -5.3161   -0.0906 H         1 <0>         0.0717
     48 H16         5.3975   -4.1914   -6.5498 H         1 <0>         0.0714
     49 H17         6.5672   -5.5271   -6.6764 H         1 <0>         0.0675
     50 H18         4.8212   -5.8724   -6.6526 H         1 <0>         0.0673
     51 H19        -2.3404   -6.5203    2.2273 H         1 <0>         0.1477
     52 H20        -5.3315   -3.5965    3.0938 H         1 <0>         0.1399
     53 H21        -2.1509   -2.6429    0.4068 H         1 <0>         0.1382
     54 H22        -5.3284   -1.5223    3.3445 H         1 <0>         0.0569
     55 H23        -5.8222   -0.4082    2.0471 H         1 <0>         0.1044
     56 H24        -6.3060   -2.1199    1.9824 H         1 <0>         0.0570
     57 H25        -5.4786   -4.7147    4.8529 H         1 <0>         0.0566
     58 H26        -6.4566   -5.3113    3.4906 H         1 <0>         0.0569
     59 H27        -6.1041   -6.3811    4.8688 H         1 <0>         0.1053
@<TRIPOS>BOND
     1    1    2 1
     2    1   33 1
     3    1   34 1
     4    1   35 1
     5    2    7 ar
     6    2    3 ar
     7    3    4 ar
     8    3   36 1
     9    4    5 ar
    10    4   37 1
    11    5    6 ar
    12    5    8 1
    13    6    7 ar
    14    6   38 1
    15    7   39 1
    16    8   12 1
    17    8    9 1
    18    9   10 2
    19    9   23 1
    20   10   11 1
    21   11   12 2
    22   12   13 1
    23   13   14 1
    24   14   15 1
    25   14   40 1
    26   14   41 1
    27   15   20 ar
    28   15   16 ar
    29   16   17 ar
    30   16   42 1
    31   17   18 ar
    32   17   22 1
    33   18   19 ar
    34   18   43 1
    35   19   20 ar
    36   19   44 1
    37   20   21 1
    38   21   45 1
    39   21   46 1
    40   21   47 1
    41   22   48 1
    42   22   49 1
    43   22   50 1
    44   23   28 ar
    45   23   24 ar
    46   24   25 ar
    47   24   51 1
    48   25   26 ar
    49   25   31 1
    50   26   27 ar
    51   26   52 1
    52   27   28 ar
    53   27   29 1
    54   28   53 1
    55   29   30 1
    56   30   54 1
    57   30   55 1
    58   30   56 1
    59   31   32 1
    60   32   57 1
    61   32   58 1
    62   32   59 1
@<TRIPOS>MOLECULE
ZINC40235684
   59    62     0     0     0
SMALL
USER_CHARGES

@<TRIPOS>ATOM
      1 C1         -0.0187    1.5258    0.0104 C.3       1 <0>        -0.1457
      2 C2          0.0021   -0.0041    0.0020 C.3       1 <0>        -0.0540
      3 C3          0.7421   -0.5109    1.2415 C.3       1 <0>        -0.1457
      4 C4         -1.4117   -0.5257    0.0127 C.ar      1 <0>        -0.1097
      5 C5         -2.2583   -0.2035    1.0573 C.ar      1 <0>        -0.0739
      6 C6         -3.5547   -0.6808    1.0697 C.ar      1 <0>        -0.1432
      7 C7         -4.0069   -1.4836    0.0326 C.ar      1 <0>         0.1239
      8 C8         -3.1556   -1.8051   -1.0146 C.ar      1 <0>        -0.2046
      9 C9         -1.8618   -1.3210   -1.0249 C.ar      1 <0>        -0.0764
     10 O1         -5.2816   -1.9547    0.0427 O.3       1 <0>        -0.3076
     11 C10        -5.6786   -2.7755   -1.0576 C.3       1 <0>         0.1412
     12 C11        -7.1128   -3.2010   -0.8752 C.2       1 <0>         0.2767
     13 N1         -7.4977   -4.2755   -0.2505 N.2       1 <0>        -0.4596
     14 C12        -8.8531   -4.3549   -0.2716 C.ar      1 <0>         0.0443
     15 C13        -9.7723   -5.2777    0.2346 C.ar      1 <0>        -0.0575
     16 C14       -11.1106   -5.0782    0.0468 C.ar      1 <0>        -0.1265
     17 C15       -11.5705   -3.9658   -0.6438 C.ar      1 <0>        -0.0925
     18 C16       -10.6820   -3.0424   -1.1520 C.ar      1 <0>        -0.1130
     19 C17        -9.3181   -3.2283   -0.9705 C.ar      1 <0>         0.0563
     20 N2         -8.1938   -2.5147   -1.3344 N.pl3     1 <0>        -0.4760
     21 C18        -8.1692   -1.2538   -2.0800 C.3       1 <0>         0.1121
     22 C19        -8.1006   -1.5493   -3.5796 C.3       1 <0>         0.0444
     23 O2         -8.0766   -0.3194   -4.3068 O.3       1 <0>        -0.2991
     24 C20        -8.0159   -0.4049   -5.6627 C.ar      1 <0>         0.0979
     25 C21        -7.9860   -1.6453   -6.2795 C.ar      1 <0>        -0.1709
     26 C22        -7.9247   -1.7305   -7.6580 C.ar      1 <0>        -0.1162
     27 C23        -7.8927   -0.5801   -8.4240 C.ar      1 <0>        -0.1122
     28 C24        -7.9218    0.6606   -7.8149 C.ar      1 <0>        -0.1726
     29 C25        -7.9894    0.7530   -6.4340 C.ar      1 <0>         0.1031
     30 O3         -8.0242    1.9727   -5.8335 O.3       1 <0>        -0.3070
     31 C26        -7.9940    3.1177   -6.6880 C.3       1 <0>         0.0255
     32 H1          1.0039    1.9031    0.0027 H         1 <0>         0.0583
     33 H2         -0.5459    1.8868   -0.8726 H         1 <0>         0.0556
     34 H3         -0.5289    1.8773    0.9072 H         1 <0>         0.0567
     35 H4          0.5123   -0.3556   -0.8948 H         1 <0>         0.0767
     36 H5          0.2319   -0.1594    2.1383 H         1 <0>         0.0567
     37 H6          0.7568   -1.6008    1.2356 H         1 <0>         0.0561
     38 H7          1.7647   -0.1336    1.2338 H         1 <0>         0.0583
     39 H8         -1.9058    0.4215    1.8644 H         1 <0>         0.1295
     40 H9         -4.2154   -0.4294    1.8862 H         1 <0>         0.1310
     41 H10        -3.5054   -2.4299   -1.8231 H         1 <0>         0.1270
     42 H11        -1.2000   -1.5674   -1.8421 H         1 <0>         0.1253
     43 H12        -5.5823   -2.2112   -1.9852 H         1 <0>         0.0828
     44 H13        -5.0405   -3.6581   -1.1014 H         1 <0>         0.1031
     45 H14        -9.4253   -6.1472    0.7730 H         1 <0>         0.1323
     46 H15       -11.8179   -5.7937    0.4395 H         1 <0>         0.1328
     47 H16       -12.6317   -3.8228   -0.7845 H         1 <0>         0.1332
     48 H17       -11.0451   -2.1782   -1.6884 H         1 <0>         0.1242
     49 H18        -9.0735   -0.6855   -1.8626 H         1 <0>         0.1082
     50 H19        -7.2953   -0.6735   -1.7837 H         1 <0>         0.1089
     51 H20        -7.1963   -2.1176   -3.7970 H         1 <0>         0.0677
     52 H21        -8.9745   -2.1296   -3.8759 H         1 <0>         0.0715
     53 H22        -8.0102   -2.5456   -5.6834 H         1 <0>         0.1327
     54 H23        -7.9014   -2.6980   -8.1375 H         1 <0>         0.1290
     55 H24        -7.8445   -0.6508   -9.5006 H         1 <0>         0.1295
     56 H25        -7.8963    1.5578   -8.4155 H         1 <0>         0.1372
     57 H26        -7.0769    3.1073   -7.2771 H         1 <0>         0.0559
     58 H27        -8.8551    3.0954   -7.3559 H         1 <0>         0.0559
     59 H28        -8.0268    4.0237   -6.0829 H         1 <0>         0.1022
@<TRIPOS>BOND
     1    1    2 1
     2    1   32 1
     3    1   33 1
     4    1   34 1
     5    2    3 1
     6    2    4 1
     7    2   35 1
     8    3   36 1
     9    3   37 1
    10    3   38 1
    11    4    9 ar
    12    4    5 ar
    13    5    6 ar
    14    5   39 1
    15    6    7 ar
    16    6   40 1
    17    7    8 ar
    18    7   10 1
    19    8    9 ar
    20    8   41 1
    21    9   42 1
    22   10   11 1
    23   11   12 1
    24   11   43 1
    25   11   44 1
    26   12   20 1
    27   12   13 2
    28   13   14 1
    29   14   19 ar
    30   14   15 ar
    31   15   16 ar
    32   15   45 1
    33   16   17 ar
    34   16   46 1
    35   17   18 ar
    36   17   47 1
    37   18   19 ar
    38   18   48 1
    39   19   20 1
    40   20   21 1
    41   21   22 1
    42   21   49 1
    43   21   50 1
    44   22   23 1
    45   22   51 1
    46   22   52 1
    47   23   24 1
    48   24   29 ar
    49   24   25 ar
    50   25   26 ar
    51   25   53 1
    52   26   27 ar
    53   26   54 1
    54   27   28 ar
    55   27   55 1
    56   28   29 ar
    57   28   56 1
    58   29   30 1
    59   30   31 1
    60   31   57 1
    61   31   58 1
    62   31   59 1
@<TRIPOS>MOLECULE
ZINC01633551
   47    49     0     0     0
SMALL
USER_CHARGES
5-[5-(5-formyl-4-propyl-1H-pyrrol-2-yl)-2-thienyl]-3-propyl-1H-pyrrole-2-carbaldehyde
@<TRIPOS>ATOM
      1 C1         -8.2806    1.8703    1.4879 C.3       1 <0>        -0.1518
      2 C2         -6.7993    1.4876    1.4792 C.3       1 <0>        -0.1112
      3 C3         -6.2808    1.4885    0.0397 C.3       1 <0>        -0.0613
      4 C4         -4.8217    1.1116    0.0312 C.2       1 <0>        -0.0470
      5 C5         -3.7475    1.9901    0.0363 C.2       1 <0>        -0.1830
      6 C6         -2.5846    1.2364    0.0213 C.2       1 <0>         0.1443
      7 N1         -2.9295   -0.0858    0.0167 N.pl3     1 <0>        -0.5189
      8 H1         -2.3113   -0.8332    0.0098 H         1 <0>         0.4224
      9 C7         -4.3075   -0.1777    0.0227 C.2       1 <0>        -0.0958
     10 C8         -5.0589   -1.3699    0.0213 C.2       1 <0>         0.3960
     11 O1         -6.2731   -1.3229    0.0276 O.2       1 <0>        -0.4505
     12 C9         -1.2167    1.7675    0.0173 C.2       1 <0>        -0.1160
     13 C10        -0.0126    1.0758    0.0080 C.2       1 <0>        -0.1439
     14 C11         1.1530    1.7882    0.0007 C.2       1 <0>        -0.1439
     15 C12         1.0868    3.1752    0.0082 C.2       1 <0>        -0.1160
     16 S1         -0.6741    3.4682    0.0262 S.3       1 <0>         0.1929
     17 C13         2.1833    4.1503    0.0029 C.2       1 <0>         0.1442
     18 C14         2.0431    5.5290    0.0056 C.2       1 <0>        -0.1829
     19 C15         3.3150    6.0841    0.0024 C.2       1 <0>        -0.0470
     20 C16         4.2276    5.0384   -0.0120 C.2       1 <0>        -0.0957
     21 N2          3.5173    3.8541   -0.0115 N.pl3     1 <0>        -0.5190
     22 H2          3.9003    2.9629   -0.0195 H         1 <0>         0.4224
     23 C17         5.6313    5.1633   -0.0255 C.2       1 <0>         0.3960
     24 O2          6.1433    6.2653   -0.0249 O.2       1 <0>        -0.4505
     25 C18         3.6451    7.5545    0.0071 C.3       1 <0>        -0.0613
     26 C19         3.8657    8.0323   -1.4295 C.3       1 <0>        -0.1112
     27 C20         4.2009    9.5251   -1.4247 C.3       1 <0>        -0.1518
     28 H3         -8.8457    1.1489    0.8977 H         1 <0>         0.0562
     29 H4         -8.6500    1.8697    2.5134 H         1 <0>         0.0536
     30 H5         -8.4014    2.8650    1.0588 H         1 <0>         0.0535
     31 H6         -6.6785    0.4929    1.9083 H         1 <0>         0.0619
     32 H7         -6.2342    2.2090    2.0694 H         1 <0>         0.0589
     33 H8         -6.4016    2.4832   -0.3893 H         1 <0>         0.0723
     34 H9         -6.8459    0.7671   -0.5505 H         1 <0>         0.0863
     35 H10        -3.8071    3.0684    0.0475 H         1 <0>         0.1494
     36 H11        -4.5556   -2.3255    0.0147 H         1 <0>         0.0932
     37 H12         0.0021   -0.0041    0.0020 H         1 <0>         0.1349
     38 H13         2.1072    1.2825   -0.0112 H         1 <0>         0.1349
     39 H14         1.1107    6.0740    0.0116 H         1 <0>         0.1494
     40 H15         6.2520    4.2795   -0.0365 H         1 <0>         0.0932
     41 H16         2.8202    8.1107    0.4524 H         1 <0>         0.0723
     42 H17         4.5517    7.7215    0.5888 H         1 <0>         0.0863
     43 H18         4.6906    7.4761   -1.8748 H         1 <0>         0.0619
     44 H19         2.9591    7.8654   -2.0112 H         1 <0>         0.0589
     45 H20         3.3759   10.0813   -0.9795 H         1 <0>         0.0535
     46 H21         5.1074    9.6921   -0.8431 H         1 <0>         0.0562
     47 H22         4.3580    9.8655   -2.4482 H         1 <0>         0.0536
@<TRIPOS>BOND
     1    1    2 1
     2    1   28 1
     3    1   29 1
     4    1   30 1
     5    2    3 1
     6    2   31 1
     7    2   32 1
     8    3    4 1
     9    3   33 1
    10    3   34 1
    11    4    9 2
    12    4    5 1
    13    5    6 2
    14    5   35 1
    15    6    7 1
    16    6   12 1
    17    7    8 1
    18    7    9 1
    19    9   10 1
    20   10   11 2
    21   10   36 1
    22   12   16 1
    23   12   13 2
    24   13   14 1
    25   13   37 1
    26   14   15 2
    27   14   38 1
    28   15   16 1
    29   15   17 1
    30   17   21 1
    31   17   18 2
    32   18   19 1
    33   18   39 1
    34   19   20 2
    35   19   25 1
    36   20   21 1
    37   20   23 1
    38   21   22 1
    39   23   24 2
    40   23   40 1
    41   25   26 1
    42   25   41 1
    43   25   42 1
    44   26   27 1
    45   26   43 1
    46   26   44 1
    47   27   45 1
    48   27   46 1
    49   27   47 1
@<TRIPOS>MOLECULE
ZINC06313376
   49    50     0     0     0
SMALL
USER_CHARGES
3-[2-chloro-5-(trifluoromethyl)phenyl]-1-(4-tert-butylcyclohexylidene)amino-thiourea
@<TRIPOS>ATOM
      1 C1          1.8060    1.9685    0.2393 C.3       1 <0>        -0.1461
      2 C2          0.3312    1.6193    0.4492 C.3       1 <0>        -0.0627
      3 C3         -0.5212    2.3679   -0.5774 C.3       1 <0>        -0.1466
      4 C4         -0.0939    2.0286    1.8608 C.3       1 <0>        -0.1483
      5 C5          0.1341    0.1122    0.2741 C.3       1 <0>        -0.0799
      6 C6         -1.3421   -0.2342    0.4755 C.3       1 <0>        -0.1121
      7 C7         -1.5554   -1.7281    0.2093 C.3       1 <0>        -0.1298
      8 C8         -0.6055   -2.5133    1.0865 C.2       1 <0>         0.1572
      9 N1         -1.0321   -3.4657    1.8278 N.2       1 <0>        -0.3001
     10 N2         -2.4050   -3.7355    1.9009 N.pl3     1 <0>        -0.5330
     11 C9         -2.8647   -4.6617    2.7653 C.2       1 <0>         0.5854
     12 S1         -4.5423   -4.9913    2.8546 S.2       1 <0>        -0.5852
     13 N3         -2.0037   -5.3284    3.5595 N.pl3     1 <0>        -0.6104
     14 C10        -2.4736   -6.3326    4.4132 C.ar      1 <0>         0.1323
     15 C11        -3.4720   -7.1982    3.9861 C.ar      1 <0>        -0.0166
     16 C12        -3.9302   -8.1915    4.8294 C.ar      1 <0>        -0.1722
     17 C13        -3.4033   -8.3187    6.1017 C.ar      1 <0>        -0.0543
     18 C14        -2.4129   -7.4557    6.5327 C.ar      1 <0>        -0.1051
     19 C15        -1.9462   -6.4624    5.6923 C.ar      1 <0>        -0.0149
     20 Cl1        -0.7025   -5.3790    6.2338 Cl        1 <0>        -0.0468
     21 C16        -5.0104   -9.1340    4.3645 C.3       1 <0>         0.5127
     22 F1         -5.3094  -10.0411    5.3868 F         1 <0>        -0.1756
     23 F2         -6.1582   -8.4035    4.0388 F         1 <0>        -0.1668
     24 F3         -4.5663   -9.8323    3.2366 F         1 <0>        -0.1748
     25 C17         0.8612   -2.1438    1.0658 C.3       1 <0>        -0.0668
     26 C18         0.9868   -0.6348    1.3009 C.3       1 <0>        -0.1160
     27 H1          2.1089    1.6769   -0.7663 H         1 <0>         0.0558
     28 H2          1.9465    3.0422    0.3641 H         1 <0>         0.0557
     29 H3          2.4133    1.4352    0.9707 H         1 <0>         0.0587
     30 H4         -1.5719    2.1191   -0.4278 H         1 <0>         0.0578
     31 H5         -0.3807    3.4415   -0.4526 H         1 <0>         0.0559
     32 H6         -0.2183    2.0763   -1.5830 H         1 <0>         0.0557
     33 H7          0.5134    1.4953    2.5922 H         1 <0>         0.0574
     34 H8          0.0466    3.1023    1.9856 H         1 <0>         0.0552
     35 H9         -1.1445    1.7798    2.0103 H         1 <0>         0.0562
     36 H10         0.4396   -0.1788   -0.7310 H         1 <0>         0.0779
     37 H11        -1.6335   -0.0023    1.4999 H         1 <0>         0.0705
     38 H12        -1.9500    0.3487   -0.2164 H         1 <0>         0.0815
     39 H13        -1.3506   -1.9461   -0.8389 H         1 <0>         0.1022
     40 H14        -2.5836   -1.9994    0.4484 H         1 <0>         0.0706
     41 H15        -3.0246   -3.2556    1.3293 H         1 <0>         0.4198
     42 H16        -1.0584   -5.1121    3.5393 H         1 <0>         0.4245
     43 H17        -3.8870   -7.0972    2.9942 H         1 <0>         0.1709
     44 H18        -3.7666   -9.0938    6.7602 H         1 <0>         0.1528
     45 H19        -2.0037   -7.5575    7.5270 H         1 <0>         0.1535
     46 H20         1.2897   -2.4003    0.0969 H         1 <0>         0.0974
     47 H21         1.3856   -2.6822    1.8553 H         1 <0>         0.0895
     48 H22         2.0295   -0.3358    1.1940 H         1 <0>         0.0849
     49 H23         0.6403   -0.3934    2.3058 H         1 <0>         0.0717
@<TRIPOS>BOND
     1    1    2 1
     2    1   27 1
     3    1   28 1
     4    1   29 1
     5    2    3 1
     6    2    4 1
     7    2    5 1
     8    3   30 1
     9    3   31 1
    10    3   32 1
    11    4   33 1
    12    4   34 1
    13    4   35 1
    14    5   26 1
    15    5    6 1
    16    5   36 1
    17    6    7 1
    18    6   37 1
    19    6   38 1
    20    7    8 1
    21    7   39 1
    22    7   40 1
    23    8    9 2
    24    8   25 1
    25    9   10 1
    26   10   11 1
    27   10   41 1
    28   11   12 2
    29   11   13 1
    30   13   14 1
    31   13   42 1
    32   14   19 ar
    33   14   15 ar
    34   15   16 ar
    35   15   43 1
    36   16   17 ar
    37   16   21 1
    38   17   18 ar
    39   17   44 1
    40   18   19 ar
    41   18   45 1
    42   19   20 1
    43   21   22 1
    44   21   23 1
    45   21   24 1
    46   25   26 1
    47   25   46 1
    48   25   47 1
    49   26   48 1
    50   26   49 1
@<TRIPOS>MOLECULE
ZINC13467665
   37    39     0     0     0
SMALL
USER_CHARGES
3-(2,3-dichlorophenyl)-1-(1-naphthylmethyleneamino)thiourea
@<TRIPOS>ATOM
      1 C1         -7.1944    6.0129   -1.2093 C.ar      1 <0>        -0.1147
      2 C2         -5.9842    6.6774   -1.0239 C.ar      1 <0>        -0.0984
      3 C3         -4.8330    5.9847   -0.7938 C.ar      1 <0>        -0.1158
      4 C4         -4.8667    4.5863   -0.7367 C.ar      1 <0>        -0.0211
      5 C5         -6.0946    3.9072   -0.9302 C.ar      1 <0>        -0.0555
      6 C6         -7.2621    4.6539   -1.1654 C.ar      1 <0>        -0.0972
      7 C7         -6.1233    2.5036   -0.8776 C.ar      1 <0>        -0.0700
      8 C8         -4.9846    1.7936   -0.6490 C.ar      1 <0>        -0.1207
      9 C9         -3.7586    2.4165   -0.4603 C.ar      1 <0>        -0.0997
     10 C10        -3.6565    3.8020   -0.4988 C.ar      1 <0>        -0.1175
     11 C11        -2.3590    4.4653   -0.2982 C.2       1 <0>         0.1699
     12 N1         -1.2585    3.8461   -0.6044 N.2       1 <0>        -0.2848
     13 N2         -1.3082    2.6387   -1.3134 N.pl3     1 <0>        -0.5374
     14 C12        -0.1767    1.9412   -1.5363 C.2       1 <0>         0.5808
     15 S1         -0.2163    0.5349   -2.5119 S.2       1 <0>        -0.5837
     16 N3          0.9869    2.3539   -0.9959 N.pl3     1 <0>        -0.6089
     17 C13         2.1526    1.6044   -1.1887 C.ar      1 <0>         0.1418
     18 C14         2.1037    0.2172   -1.1420 C.ar      1 <0>        -0.0602
     19 C15         3.2557   -0.5205   -1.3326 C.ar      1 <0>        -0.0930
     20 C16         4.4582    0.1198   -1.5695 C.ar      1 <0>        -0.0910
     21 C17         4.5119    1.5018   -1.6169 C.ar      1 <0>        -0.0286
     22 C18         3.3605    2.2461   -1.4329 C.ar      1 <0>        -0.0398
     23 Cl1         3.4259    3.9796   -1.5000 Cl        1 <0>        -0.0413
     24 Cl2         6.0237    2.3015   -1.9145 Cl        1 <0>        -0.0423
     25 H1         -8.0927    6.5845   -1.3902 H         1 <0>         0.1288
     26 H2         -5.9578    7.7564   -1.0628 H         1 <0>         0.1296
     27 H3         -3.9011    6.5118   -0.6521 H         1 <0>         0.1307
     28 H4         -8.2075    4.1523   -1.3102 H         1 <0>         0.1331
     29 H5         -7.0584    1.9824   -1.0204 H         1 <0>         0.1354
     30 H6         -5.0364    0.7155   -0.6138 H         1 <0>         0.1348
     31 H7         -2.8766    1.8195   -0.2817 H         1 <0>         0.1325
     32 H8         -2.3210    5.4671    0.1037 H         1 <0>         0.1966
     33 H9         -2.1568    2.3048   -1.6437 H         1 <0>         0.4261
     34 H10         1.0163    3.1705   -0.4732 H         1 <0>         0.4227
     35 H11         1.1654   -0.2844   -0.9564 H         1 <0>         0.1643
     36 H12         3.2173   -1.5992   -1.2963 H         1 <0>         0.1475
     37 H13         5.3574   -0.4598   -1.7174 H         1 <0>         0.1468
@<TRIPOS>BOND
     1    1    6 ar
     2    1    2 ar
     3    1   25 1
     4    2    3 ar
     5    2   26 1
     6    3    4 ar
     7    3   27 1
     8    4   10 ar
     9    4    5 ar
    10    5    6 ar
    11    5    7 ar
    12    6   28 1
    13    7    8 ar
    14    7   29 1
    15    8    9 ar
    16    8   30 1
    17    9   10 ar
    18    9   31 1
    19   10   11 1
    20   11   12 2
    21   11   32 1
    22   12   13 1
    23   13   14 1
    24   13   33 1
    25   14   15 2
    26   14   16 1
    27   16   17 1
    28   16   34 1
    29   17   22 ar
    30   17   18 ar
    31   18   19 ar
    32   18   35 1
    33   19   20 ar
    34   19   36 1
    35   20   21 ar
    36   20   37 1
    37   21   22 ar
    38   21   24 1
    39   22   23 1
@<TRIPOS>MOLECULE
ZINC21511124
   37    38     0     0     0
SMALL
USER_CHARGES
4-bromo-2-[(1R)-1-[(4-fluoro-2-methyl-phenyl)amino]propyl]phenol
@<TRIPOS>ATOM
      1 C1          1.5182   -4.2253    1.3933 C.3       1 <0>        -0.1599
      2 C2          1.3728   -2.7023    1.4120 C.3       1 <0>        -0.1290
      3 C3          1.2271   -2.1863   -0.0210 C.3       1 <0>         0.2077
      4 H1          2.0510   -2.5446   -0.6557 H         1 <0>         0.0941
      5 C4          1.2073   -0.6795   -0.0127 C.ar      1 <0>        -0.1258
      6 C5          0.0021   -0.0041    0.0020 C.ar      1 <0>        -0.0456
      7 C6         -0.0167    1.3790    0.0096 C.ar      1 <0>        -0.1296
      8 C7          1.1709    2.0890    0.0021 C.ar      1 <0>        -0.0483
      9 C8          2.3779    1.4176   -0.0131 C.ar      1 <0>        -0.2042
     10 C9          2.3989    0.0303   -0.0203 C.ar      1 <0>         0.1844
     11 O1          3.5856   -0.6322   -0.0344 O.3       1 <0>        -0.5014
     12 Br1        -1.6677    2.3008    0.0225 Br        1 <0>        -0.0466
     13 N1         -0.0235   -2.6880   -0.5959 N.pl3     1 <0>        -0.7511
     14 C10        -0.0617   -3.9531   -1.1902 C.ar      1 <0>         0.2172
     15 C11         1.0867   -4.7327   -1.2410 C.ar      1 <0>        -0.1714
     16 C12         1.0453   -5.9841   -1.8237 C.ar      1 <0>        -0.1114
     17 C13        -0.1375   -6.4575   -2.3664 C.ar      1 <0>         0.0375
     18 C14        -1.2820   -5.6798   -2.3220 C.ar      1 <0>        -0.1061
     19 C15        -1.2465   -4.4296   -1.7354 C.ar      1 <0>        -0.1376
     20 C16        -2.4928   -3.5838   -1.6869 C.3       1 <0>        -0.1112
     21 F1         -0.1745   -7.6799   -2.9406 F         1 <0>        -0.1474
     22 H2          1.6230   -4.5963    2.4235 H         1 <0>         0.0530
     23 H3          2.4101   -4.5013    0.8117 H         1 <0>         0.0582
     24 H4          0.6261   -4.6731    0.9312 H         1 <0>         0.0671
     25 H5          0.4809   -2.4263    1.9936 H         1 <0>         0.0659
     26 H6          2.2649   -2.2544    1.8741 H         1 <0>         0.0722
     27 H7         -0.9260   -0.5564    0.0079 H         1 <0>         0.1339
     28 H8          1.1541    3.1688    0.0081 H         1 <0>         0.1363
     29 H9          3.3046    1.9722   -0.0187 H         1 <0>         0.1389
     30 H10         4.5302   -0.0685   -0.0404 H         1 <0>         0.4407
     31 H11        -0.9324   -2.0695   -0.5600 H         1 <0>         0.4137
     32 H12         2.0105   -4.3620   -0.8218 H         1 <0>         0.1379
     33 H13         1.9371   -6.5922   -1.8598 H         1 <0>         0.1316
     34 H14        -2.2032   -6.0507   -2.7465 H         1 <0>         0.1320
     35 H15        -3.3224   -4.1255   -2.1647 H         1 <0>         0.0707
     36 H16        -2.3157   -2.6389   -2.2215 H         1 <0>         0.0670
     37 H17        -2.7500   -3.3696   -0.6391 H         1 <0>         0.0668
@<TRIPOS>BOND
     1    1    2 1
     2    1   22 1
     3    1   23 1
     4    1   24 1
     5    2    3 1
     6    2   25 1
     7    2   26 1
     8    3    4 1
     9    3    5 1
    10    3   13 1
    11    5   10 ar
    12    5    6 ar
    13    6    7 ar
    14    6   27 1
    15    7    8 ar
    16    7   12 1
    17    8    9 ar
    18    8   28 1
    19    9   10 ar
    20    9   29 1
    21   10   11 1
    22   11   30 1
    23   13   14 1
    24   13   31 1
    25   14   19 ar
    26   14   15 ar
    27   15   16 ar
    28   15   32 1
    29   16   17 ar
    30   16   33 1
    31   17   18 ar
    32   17   21 1
    33   18   19 ar
    34   18   34 1
    35   19   20 1
    36   20   35 1
    37   20   36 1
    38   20   37 1
@<TRIPOS>MOLECULE
ZINC57362928
   53    56     0     0     0
SMALL
NO_CHARGES

@<TRIPOS>ATOM
      1 C1          0.3421    2.1531    0.2997 C.3       1 <0>        -0.1408
      2 C2          0.1741    0.6369    0.1813 C.3       1 <0>        -0.0437
      3 C3          0.8485   -0.0359    1.3490 C.ar      1 <0>         0.3490
      4 N1          2.1198   -0.3808    1.2487 N.ar      1 <0>        -0.5551
      5 C4          2.7691   -0.9743    2.2381 C.ar      1 <0>         0.3945
      6 C5          2.0766   -1.2501    3.4490 C.ar      1 <0>        -0.2575
      7 C6          2.5883   -1.8945    4.6695 C.2       1 <0>        -0.0985
      8 C7          1.7237   -2.0414    5.6862 C.2       1 <0>        -0.2149
      9 S1          0.1971   -1.3417    5.1008 S.3       1 <0>         0.1121
     10 C8          0.7272   -0.8541    3.4818 C.ar      1 <0>         0.1665
     11 N2          0.1572   -0.2620    2.4495 N.ar      1 <0>        -0.5401
     12 C9          2.3539   -2.7151    6.8758 C.3       1 <0>        -0.0273
     13 C10         3.6365   -3.3688    6.3164 C.3       1 <0>        -0.1143
     14 C11         3.9397   -2.4719    5.1002 C.3       1 <0>        -0.0675
     15 N3          4.1015   -1.3214    2.0958 N.pl3     1 <0>        -0.5932
     16 C12         4.7401   -1.1525    0.8639 C.ar      1 <0>         0.0169
     17 C13         6.0908   -0.8316    0.8182 C.ar      1 <0>        -0.1375
     18 C14         6.7187   -0.6658   -0.4006 C.ar      1 <0>        -0.0970
     19 C15         6.0042   -0.8185   -1.5747 C.ar      1 <0>        -0.2498
     20 C16         4.6593   -1.1375   -1.5328 C.ar      1 <0>        -0.1239
     21 C17         4.0267   -1.3108   -0.3174 C.ar      1 <0>        -0.0758
     22 N4          6.6429   -0.6496   -2.8068 N.4       1 <0>        -0.2730
     23 C18         6.5483   -1.8938   -3.5820 C.3       1 <0>        -0.0090
     24 C19         7.3525   -1.7509   -4.8757 C.3       1 <0>        -0.1860
     25 C20         5.9949    0.4401   -3.5488 C.3       1 <0>        -0.0137
     26 C21         6.2014    1.7592   -2.8016 C.3       1 <0>        -0.1706
     27 H1          1.4032    2.4022    0.2993 H         1 <0>         0.0556
     28 H2         -0.1457    2.6397   -0.5448 H         1 <0>         0.0623
     29 H3         -0.1116    2.4974    1.2291 H         1 <0>         0.0570
     30 H4         -0.8870    0.3878    0.1817 H         1 <0>         0.0859
     31 H5          0.6278    0.2926   -0.7481 H         1 <0>         0.0838
     32 H6          2.6041   -1.9802    7.6408 H         1 <0>         0.0807
     33 H7          1.6855   -3.4748    7.2810 H         1 <0>         0.0761
     34 H8          4.4462   -3.3255    7.0448 H         1 <0>         0.0821
     35 H9          3.4474   -4.3964    6.0060 H         1 <0>         0.0757
     36 H10         4.3711   -3.0642    4.2932 H         1 <0>         0.0671
     37 H11         4.6196   -1.6687    5.3842 H         1 <0>         0.0777
     38 H12         4.5921   -1.6819    2.8509 H         1 <0>         0.4074
     39 H13         6.6493   -0.7115    1.7348 H         1 <0>         0.1009
     40 H14         7.7689   -0.4163   -0.4368 H         1 <0>         0.0981
     41 H15         4.1041   -1.2557   -2.4516 H         1 <0>         0.0941
     42 H16         2.9774   -1.5647   -0.2855 H         1 <0>         0.1176
     43 H17         6.9493   -2.7195   -2.9942 H         1 <0>         0.1183
     44 H18         5.5042   -2.0930   -3.8233 H         1 <0>         0.1141
     45 H19         7.2823   -2.6741   -5.4510 H         1 <0>         0.0922
     46 H20         6.9515   -0.9252   -5.4635 H         1 <0>         0.0727
     47 H21         8.3966   -1.5517   -4.6344 H         1 <0>         0.0715
     48 H22         6.4340    0.5135   -4.5437 H         1 <0>         0.1046
     49 H23         4.9279    0.2356   -3.6368 H         1 <0>         0.1147
     50 H24         5.7623    1.6858   -1.8067 H         1 <0>         0.0882
     51 H25         7.2684    1.9638   -2.7136 H         1 <0>         0.0638
     52 H26         5.7207    2.5678   -3.3522 H         1 <0>         0.0846
     53 H27         7.6138   -0.4216   -2.6538 H         1 <0>         0.4034
@<TRIPOS>BOND
     1    1    2 1
     2    1   27 1
     3    1   28 1
     4    1   29 1
     5    2    3 1
     6    2   30 1
     7    2   31 1
     8    3   11 ar
     9    3    4 ar
    10    4    5 ar
    11    5    6 ar
    12    5   15 1
    13    6   10 ar
    14    6    7 1
    15    7   14 1
    16    7    8 2
    17    8    9 1
    18    8   12 1
    19    9   10 1
    20   10   11 ar
    21   12   13 1
    22   12   32 1
    23   12   33 1
    24   13   14 1
    25   13   34 1
    26   13   35 1
    27   14   36 1
    28   14   37 1
    29   15   16 1
    30   15   38 1
    31   16   21 ar
    32   16   17 ar
    33   17   18 ar
    34   17   39 1
    35   18   19 ar
    36   18   40 1
    37   19   20 ar
    38   19   22 1
    39   20   21 ar
    40   20   41 1
    41   21   42 1
    42   22   23 1
    43   22   25 1
    44   22   53 1
    45   23   24 1
    46   23   43 1
    47   23   44 1
    48   24   45 1
    49   24   46 1
    50   24   47 1
    51   25   26 1
    52   25   48 1
    53   25   49 1
    54   26   50 1
    55   26   51 1
    56   26   52 1
@<TRIPOS>MOLECULE
ZINC05104386
   68    71     0     0     0
SMALL
USER_CHARGES
1,4-dimethylpentyl-dimethyl-BLAHone
@<TRIPOS>ATOM
      1 C1          1.1002    1.7793   -0.0696 C.3       1 <0>        -0.1489
      2 C2          0.3384    1.9969    1.2393 C.3       1 <0>        -0.0980
      3 C3          1.2681    1.7204    2.4225 C.3       1 <0>        -0.1491
      4 C4         -0.1567    3.4430    1.3069 C.3       1 <0>        -0.1158
      5 C5         -1.0232    3.6276    2.5543 C.3       1 <0>        -0.1178
      6 C6         -1.5183    5.0737    2.6219 C.3       1 <0>        -0.0876
      7 H1         -0.6660    5.7519    2.5805 H         1 <0>         0.0781
      8 C7         -2.4480    5.3503    1.4386 C.3       1 <0>        -0.1551
      9 C8         -2.2793    5.2911    3.9294 C.3       1 <0>        -0.0789
     10 H2         -3.1896    4.7060    3.9603 H         1 <0>         0.0701
     11 C9         -1.3729    4.9776    5.1468 C.3       1 <0>        -0.1200
     12 C10        -1.5534    6.1568    6.1435 C.3       1 <0>        -0.1156
     13 C11        -2.8136    6.8598    5.6222 C.3       1 <0>        -0.0714
     14 H3         -3.6778    6.2120    5.8854 H         1 <0>         0.0627
     15 C12        -2.6124    6.7911    4.0956 C.3       1 <0>        -0.0501
     16 C13        -3.8355    7.2464    3.3396 C.3       1 <0>        -0.1024
     17 C14        -4.5989    8.3263    4.1281 C.3       1 <0>        -0.1079
     18 C15        -3.6306    9.1237    4.9841 C.3       1 <0>        -0.0684
     19 H4         -2.7873    9.4328    4.3575 H         1 <0>         0.0814
     20 C16        -3.1074    8.2343    6.1221 C.3       1 <0>        -0.0727
     21 H5         -3.9471    8.1111    6.8357 H         1 <0>         0.0624
     22 C17        -1.9961    8.9401    6.8809 C.3       1 <0>        -0.1055
     23 C18        -2.5726   10.2328    7.5077 C.3       1 <0>        -0.1085
     24 C19        -4.0254   10.3348    7.1199 C.3       1 <0>        -0.0864
     25 H6         -4.5795    9.4753    7.5229 H         1 <0>         0.0829
     26 C20        -4.1764   10.3900    5.5770 C.3       1 <0>        -0.0551
     27 C21        -5.6711   10.6754    5.4364 C.3       1 <0>        -0.1610
     28 C22        -5.9730   11.6412    6.5818 C.2       1 <0>         0.3704
     29 O1         -6.9706   12.3072    6.7101 O.2       1 <0>        -0.4429
     30 C23        -4.7778   11.6053    7.5360 C.3       1 <0>        -0.1707
     31 C24        -3.4022   11.5843    5.0055 C.3       1 <0>        -0.1467
     32 C25        -1.3717    7.5626    3.6380 C.3       1 <0>        -0.1466
     33 H7          1.4529    0.7491   -0.1178 H         1 <0>         0.0530
     34 H8          1.9525    2.4575   -0.1110 H         1 <0>         0.0534
     35 H9          0.4379    1.9764   -0.9126 H         1 <0>         0.0530
     36 H10        -0.5139    1.3188    1.2807 H         1 <0>         0.0670
     37 H11         2.1205    2.3985    2.3811 H         1 <0>         0.0529
     38 H12         0.7254    1.8754    3.3550 H         1 <0>         0.0561
     39 H13         1.6209    0.6901    2.3744 H         1 <0>         0.0515
     40 H14         0.6980    4.1178    1.3551 H         1 <0>         0.0593
     41 H15        -0.7468    3.6669    0.4182 H         1 <0>         0.0628
     42 H16        -1.8779    2.9529    2.5061 H         1 <0>         0.0575
     43 H17        -0.4331    3.4037    3.4430 H         1 <0>         0.0656
     44 H18        -3.3599    4.7633    1.5481 H         1 <0>         0.0511
     45 H19        -2.6993    6.4107    1.4141 H         1 <0>         0.0602
     46 H20        -1.9473    5.0740    0.5107 H         1 <0>         0.0536
     47 H21        -1.6838    4.0438    5.6135 H         1 <0>         0.0593
     48 H22        -0.3333    4.9115    4.8338 H         1 <0>         0.0647
     49 H23        -1.7244    5.7749    7.1522 H         1 <0>         0.0584
     50 H24        -0.6920    6.8164    6.1341 H         1 <0>         0.0691
     51 H25        -4.4973    6.3918    3.1588 H         1 <0>         0.0609
     52 H26        -3.5340    7.6503    2.3650 H         1 <0>         0.0642
     53 H27        -5.3485    7.8534    4.7672 H         1 <0>         0.0590
     54 H28        -5.1064    8.9957    3.4283 H         1 <0>         0.0620
     55 H29        -1.6155    8.2928    7.6722 H         1 <0>         0.0651
     56 H30        -1.1830    9.1989    6.2019 H         1 <0>         0.0632
     57 H31        -2.4898   10.1592    8.6017 H         1 <0>         0.0614
     58 H32        -2.0030   11.0977    7.1779 H         1 <0>         0.0697
     59 H33        -6.1820    9.8186    5.5060 H         1 <0>         0.0950
     60 H34        -5.8784   11.1487    4.4803 H         1 <0>         0.0935
     61 H35        -5.0578   11.5286    8.4929 H         1 <0>         0.0825
     62 H36        -4.1554   12.4878    7.4303 H         1 <0>         0.1019
     63 H37        -2.3439   11.4792    5.2444 H         1 <0>         0.0631
     64 H38        -3.5290   11.6153    3.9234 H         1 <0>         0.0592
     65 H39        -3.7835   12.5072    5.4426 H         1 <0>         0.0538
     66 H40        -1.2505    7.4497    2.5606 H         1 <0>         0.0585
     67 H41        -1.4901    8.6184    3.8816 H         1 <0>         0.0564
     68 H42        -0.4913    7.1690    4.1459 H         1 <0>         0.0573
@<TRIPOS>BOND
     1    1    2 1
     2    1   33 1
     3    1   34 1
     4    1   35 1
     5    2    3 1
     6    2    4 1
     7    2   36 1
     8    3   37 1
     9    3   38 1
    10    3   39 1
    11    4    5 1
    12    4   40 1
    13    4   41 1
    14    5    6 1
    15    5   42 1
    16    5   43 1
    17    6    7 1
    18    6    8 1
    19    6    9 1
    20    8   44 1
    21    8   45 1
    22    8   46 1
    23    9   10 1
    24    9   15 1
    25    9   11 1
    26   11   12 1
    27   11   47 1
    28   11   48 1
    29   12   13 1
    30   12   49 1
    31   12   50 1
    32   13   14 1
    33   13   20 1
    34   13   15 1
    35   15   16 1
    36   15   32 1
    37   16   17 1
    38   16   51 1
    39   16   52 1
    40   17   18 1
    41   17   53 1
    42   17   54 1
    43   18   19 1
    44   18   26 1
    45   18   20 1
    46   20   21 1
    47   20   22 1
    48   22   23 1
    49   22   55 1
    50   22   56 1
    51   23   24 1
    52   23   57 1
    53   23   58 1
    54   24   25 1
    55   24   30 1
    56   24   26 1
    57   26   27 1
    58   26   31 1
    59   27   28 1
    60   27   59 1
    61   27   60 1
    62   28   29 2
    63   28   30 1
    64   30   61 1
    65   30   62 1
    66   31   63 1
    67   31   64 1
    68   31   65 1
    69   32   66 1
    70   32   67 1
    71   32   68 1
@<TRIPOS>MOLECULE
ZINC12603331
   42    44     0     0     0
SMALL
USER_CHARGES
4-(2,4-dichlorophenyl)-3-[(2,4-dimethylphenyl)methyleneamino]-N-methyl-thiazol-2-imine
@<TRIPOS>ATOM
      1 C1          1.6998   -6.9582   -3.7981 C.3       1 <0>        -0.1209
      2 C2          1.6047   -5.5230   -3.3482 C.ar      1 <0>        -0.0557
      3 C3          2.4133   -4.5634   -3.9319 C.ar      1 <0>        -0.1341
      4 C4          2.3276   -3.2472   -3.5293 C.ar      1 <0>        -0.0692
      5 C5          1.4293   -2.8853   -2.5221 C.ar      1 <0>        -0.0800
      6 C6          0.6164   -3.8593   -1.9375 C.ar      1 <0>        -0.0315
      7 C7          0.7092   -5.1711   -2.3540 C.ar      1 <0>        -0.1318
      8 C8         -0.3593   -3.4781   -0.8541 C.3       1 <0>        -0.1227
      9 C9          1.3355   -1.4810   -2.0827 C.2       1 <0>         0.1637
     10 N1          0.4305   -1.1296   -1.2207 N.2       1 <0>        -0.2585
     11 N2          0.4285    0.1701   -0.6975 N.pl3     1 <0>        -0.3790
     12 C10        -0.7322    0.7438   -0.2503 C.2       1 <0>         0.1612
     13 C11        -0.7087    1.9964    0.2487 C.2       1 <0>        -0.1819
     14 S1          1.0168    2.4299    0.1007 S.3       1 <0>        -0.0560
     15 C12         1.5968    0.9029   -0.6212 C.2       1 <0>         0.3631
     16 N3          2.8090    0.5672   -0.9833 N.2       1 <0>        -0.5484
     17 C13         3.9140    1.5132   -0.8093 C.3       1 <0>         0.0358
     18 C14        -2.0047   -0.0071   -0.3139 C.ar      1 <0>        -0.0213
     19 C15        -2.3294   -0.7401   -1.4563 C.ar      1 <0>        -0.0515
     20 C16        -3.5153   -1.4427   -1.5078 C.ar      1 <0>        -0.1064
     21 C17        -4.3889   -1.4129   -0.4337 C.ar      1 <0>        -0.0125
     22 C18        -4.0757   -0.6836    0.7006 C.ar      1 <0>        -0.1019
     23 C19        -2.8890    0.0192    0.7666 C.ar      1 <0>        -0.0032
     24 Cl1        -2.4975    0.9339    2.1892 Cl        1 <0>        -0.0398
     25 Cl2        -5.8826   -2.2941   -0.5096 Cl        1 <0>        -0.0495
     26 H1          1.0020   -7.1290   -4.6178 H         1 <0>         0.0750
     27 H2          2.7150   -7.1665   -4.1358 H         1 <0>         0.0698
     28 H3          1.4513   -7.6170   -2.9660 H         1 <0>         0.0691
     29 H4          3.1100   -4.8452   -4.7075 H         1 <0>         0.1285
     30 H5          2.9560   -2.4985   -3.9888 H         1 <0>         0.1303
     31 H6          0.0811   -5.9252   -1.9032 H         1 <0>         0.1267
     32 H7         -1.2854   -3.1243   -1.3072 H         1 <0>         0.0759
     33 H8         -0.5687   -4.3477   -0.2312 H         1 <0>         0.0592
     34 H9          0.0704   -2.6865   -0.2403 H         1 <0>         0.0963
     35 H10         2.0197   -0.7447   -2.4779 H         1 <0>         0.1465
     36 H11        -1.5258    2.5879    0.6347 H         1 <0>         0.2060
     37 H12         4.8394    1.0603   -1.1648 H         1 <0>         0.0924
     38 H13         3.7100    2.4191   -1.3801 H         1 <0>         0.0614
     39 H14         4.0145    1.7641    0.2467 H         1 <0>         0.0599
     40 H15        -1.6514   -0.7606   -2.2967 H         1 <0>         0.1394
     41 H16        -3.7652   -2.0139   -2.3898 H         1 <0>         0.1449
     42 H17        -4.7609   -0.6641    1.5351 H         1 <0>         0.1509
@<TRIPOS>BOND
     1    1    2 1
     2    1   26 1
     3    1   27 1
     4    1   28 1
     5    2    7 ar
     6    2    3 ar
     7    3    4 ar
     8    3   29 1
     9    4    5 ar
    10    4   30 1
    11    5    6 ar
    12    5    9 1
    13    6    7 ar
    14    6    8 1
    15    7   31 1
    16    8   32 1
    17    8   33 1
    18    8   34 1
    19    9   10 2
    20    9   35 1
    21   10   11 1
    22   11   15 1
    23   11   12 1
    24   12   13 2
    25   12   18 1
    26   13   14 1
    27   13   36 1
    28   14   15 1
    29   15   16 2
    30   16   17 1
    31   17   37 1
    32   17   38 1
    33   17   39 1
    34   18   23 ar
    35   18   19 ar
    36   19   20 ar
    37   19   40 1
    38   20   21 ar
    39   20   41 1
    40   21   22 ar
    41   21   25 1
    42   22   23 ar
    43   22   42 1
    44   23   24 1
@<TRIPOS>MOLECULE
ZINC17080325
   45    48     0     0     0
SMALL
USER_CHARGES
1-(2,5-dichlorophenyl)-3,5-bis(p-tolyl)pyrazole
@<TRIPOS>ATOM
      1 C1          3.3887    7.1697    0.2876 C.3       1 <0>        -0.1183
      2 C2          2.8465    5.7648    0.2273 C.ar      1 <0>        -0.0748
      3 C3          1.5627    5.5021    0.6701 C.ar      1 <0>        -0.1228
      4 C4          1.0613    4.2173    0.6176 C.ar      1 <0>        -0.0840
      5 C5          1.8509    3.1840    0.1176 C.ar      1 <0>        -0.0257
      6 C6          3.1454    3.4533   -0.3222 C.ar      1 <0>        -0.0879
      7 C7          3.6348    4.7428   -0.2700 C.ar      1 <0>        -0.1220
      8 C8          1.3174    1.8004    0.0592 C.2       1 <0>         0.1256
      9 C9          2.0059    0.6729   -0.4200 C.2       1 <0>        -0.2285
     10 C10         1.1745   -0.4028   -0.3058 C.2       1 <0>         0.1375
     11 N1         -0.0014    0.0411    0.2302 N.pl3     1 <0>        -0.3296
     12 N2          0.1175    1.4197    0.4472 N.2       1 <0>        -0.2537
     13 C11        -1.1265   -0.7435    0.5125 C.ar      1 <0>         0.1697
     14 C12        -1.0148   -1.8427    1.3536 C.ar      1 <0>        -0.0913
     15 C13        -2.1272   -2.6149    1.6306 C.ar      1 <0>        -0.0211
     16 C14        -3.3515   -2.2936    1.0703 C.ar      1 <0>        -0.0893
     17 C15        -3.4658   -1.1999    0.2326 C.ar      1 <0>        -0.0869
     18 C16        -2.3582   -0.4203   -0.0439 C.ar      1 <0>        -0.0266
     19 Cl1        -2.5045    0.9572   -1.0902 Cl        1 <0>        -0.0295
     20 Cl2        -1.9887   -3.9893    2.6820 Cl        1 <0>        -0.0427
     21 C17         1.4887   -1.7959   -0.6924 C.ar      1 <0>        -0.0479
     22 C18         0.4585   -2.7003   -0.9516 C.ar      1 <0>        -0.1026
     23 C19         0.7581   -3.9965   -1.3173 C.ar      1 <0>        -0.1145
     24 C20         2.0768   -4.4033   -1.4159 C.ar      1 <0>        -0.0700
     25 C21         3.1029   -3.5129   -1.1546 C.ar      1 <0>        -0.1176
     26 C22         2.8165   -2.2123   -0.7936 C.ar      1 <0>        -0.0821
     27 C23         2.3968   -5.8224   -1.8092 C.3       1 <0>        -0.1197
     28 H1          3.8820    7.3279    1.2466 H         1 <0>         0.0728
     29 H2          4.1068    7.3169   -0.5191 H         1 <0>         0.0681
     30 H3          2.5694    7.8803    0.1788 H         1 <0>         0.0677
     31 H4          0.9514    6.3039    1.0572 H         1 <0>         0.1257
     32 H5          0.0589    4.0132    0.9639 H         1 <0>         0.1289
     33 H6          3.7632    2.6553   -0.7066 H         1 <0>         0.1278
     34 H7          4.6366    4.9534   -0.6141 H         1 <0>         0.1271
     35 H8          3.0133    0.6602   -0.8091 H         1 <0>         0.1583
     36 H9         -0.0597   -2.0943    1.7905 H         1 <0>         0.1492
     37 H10        -4.2192   -2.8985    1.2883 H         1 <0>         0.1532
     38 H11        -4.4225   -0.9516   -0.2027 H         1 <0>         0.1556
     39 H12        -0.5713   -2.3852   -0.8706 H         1 <0>         0.1207
     40 H13        -0.0384   -4.6963   -1.5229 H         1 <0>         0.1269
     41 H14         4.1303   -3.8365   -1.2330 H         1 <0>         0.1301
     42 H15         3.6184   -1.5183   -0.5895 H         1 <0>         0.1312
     43 H16         2.4622   -6.4415   -0.9145 H         1 <0>         0.0745
     44 H17         1.6102   -6.2054   -2.4594 H         1 <0>         0.0689
     45 H18         3.3495   -5.8468   -2.3384 H         1 <0>         0.0697
@<TRIPOS>BOND
     1    1    2 1
     2    1   28 1
     3    1   29 1
     4    1   30 1
     5    2    7 ar
     6    2    3 ar
     7    3    4 ar
     8    3   31 1
     9    4    5 ar
    10    4   32 1
    11    5    6 ar
    12    5    8 1
    13    6    7 ar
    14    6   33 1
    15    7   34 1
    16    8   12 2
    17    8    9 1
    18    9   10 2
    19    9   35 1
    20   10   11 1
    21   10   21 1
    22   11   12 1
    23   11   13 1
    24   13   18 ar
    25   13   14 ar
    26   14   15 ar
    27   14   36 1
    28   15   16 ar
    29   15   20 1
    30   16   17 ar
    31   16   37 1
    32   17   18 ar
    33   17   38 1
    34   18   19 1
    35   21   26 ar
    36   21   22 ar
    37   22   23 ar
    38   22   39 1
    39   23   24 ar
    40   23   40 1
    41   24   25 ar
    42   24   27 1
    43   25   26 ar
    44   25   41 1
    45   26   42 1
    46   27   43 1
    47   27   44 1
    48   27   45 1
@<TRIPOS>MOLECULE
ZINC03850230
   74    77     0     0     0
SMALL
USER_CHARGES

@<TRIPOS>ATOM
      1 C1         -0.3380    1.4237   -0.1559 C.3       1 <0>        -0.1516
      2 C2          0.0712   -0.0501   -0.1160 C.3       1 <0>        -0.0871
      3 H1         -0.8218   -0.6744   -0.0861 H         1 <0>         0.0782
      4 C3          0.8873   -0.3868   -1.3656 C.3       1 <0>        -0.1230
      5 C4          0.0390   -0.1311   -2.6129 C.3       1 <0>        -0.1232
      6 C5          0.8551   -0.4679   -3.8625 C.3       1 <0>        -0.1144
      7 C6          0.0067   -0.2122   -5.1099 C.3       1 <0>        -0.0980
      8 C7         -0.3024    1.2823   -5.2189 C.3       1 <0>        -0.1494
      9 C8          0.7765   -0.6657   -6.3519 C.3       1 <0>        -0.1490
     10 C9          0.9162   -0.3103    1.1293 C.3       1 <0>        -0.0782
     11 H2          1.8445    0.2469    1.1019 H         1 <0>         0.0695
     12 C10         0.1064    0.0186    2.4127 C.3       1 <0>        -0.1205
     13 C11         0.2238   -1.2323    3.3361 C.3       1 <0>        -0.1180
     14 C12         1.4838   -1.9051    2.7712 C.3       1 <0>        -0.0763
     15 H3          2.3393   -1.2258    3.0014 H         1 <0>         0.0629
     16 C13         1.2089   -1.8188    1.2568 C.3       1 <0>        -0.0504
     17 C14         2.3968   -2.3332    0.4829 C.3       1 <0>        -0.1107
     18 C15         2.7022   -3.7751    0.9373 C.3       1 <0>        -0.1075
     19 C16         3.0173   -3.8056    2.4228 C.3       1 <0>        -0.0682
     20 H4          3.8679   -3.1234    2.5909 H         1 <0>         0.0623
     21 C17         1.8428   -3.2747    3.2563 C.3       1 <0>        -0.0627
     22 H5          2.2044   -3.1765    4.3051 H         1 <0>         0.0630
     23 C18         0.7007   -4.2780    3.2590 C.3       1 <0>        -0.1122
     24 C19         1.1643   -5.5800    3.9200 C.3       1 <0>        -0.1164
     25 C20         2.6664   -5.5346    4.1937 C.3       1 <0>        -0.0649
     26 H6          2.8709   -4.7757    4.9575 H         1 <0>         0.0752
     27 C21         3.4436   -5.1847    2.9254 C.3       1 <0>        -0.0455
     28 C22         4.9431   -5.1092    3.2503 C.3       1 <0>        -0.1048
     29 C23         5.4655   -6.4466    3.7675 C.3       1 <0>        -0.1706
     30 C24         4.6013   -6.9039    4.9198 C.2       1 <0>         0.3627
     31 O1          5.0978   -7.2656    5.9611 O.2       1 <0>        -0.4599
     32 C25         3.1026   -6.8994    4.7376 C.3       1 <0>        -0.1690
     33 C26         3.2155   -6.2477    1.8533 C.3       1 <0>        -0.1442
     34 C27        -0.0619   -2.5502    0.8282 C.3       1 <0>        -0.1515
     35 H7          0.5550    2.0480   -0.1858 H         1 <0>         0.0507
     36 H8         -0.9410    1.6094   -1.0446 H         1 <0>         0.0546
     37 H9         -0.9194    1.6636    0.7344 H         1 <0>         0.0531
     38 H10         1.7784    0.2401   -1.3974 H         1 <0>         0.0579
     39 H11         1.1820   -1.4358   -1.3353 H         1 <0>         0.0739
     40 H12        -0.8521   -0.7581   -2.5811 H         1 <0>         0.0578
     41 H13        -0.2557    0.9178   -2.6432 H         1 <0>         0.0658
     42 H14         1.7461    0.1591   -3.8944 H         1 <0>         0.0598
     43 H15         1.1497   -1.5169   -3.8323 H         1 <0>         0.0592
     44 H16        -0.9258   -0.7717   -5.0360 H         1 <0>         0.0674
     45 H17        -0.9067    1.4644   -6.1075 H         1 <0>         0.0518
     46 H18        -0.8508    1.6053   -4.3340 H         1 <0>         0.0561
     47 H19         0.6302    1.8417   -5.2928 H         1 <0>         0.0530
     48 H20         0.9968   -1.7304   -6.2743 H         1 <0>         0.0532
     49 H21         0.1722   -0.4836   -7.2406 H         1 <0>         0.0532
     50 H22         1.7091   -0.1062   -6.4258 H         1 <0>         0.0534
     51 H23         0.5376    0.8858    2.9108 H         1 <0>         0.0594
     52 H24        -0.9361    0.2012    2.1633 H         1 <0>         0.0648
     53 H25         0.3954   -0.9188    4.3687 H         1 <0>         0.0575
     54 H26        -0.6499   -1.8645    3.2684 H         1 <0>         0.0719
     55 H27         2.1765   -2.3347   -0.5875 H         1 <0>         0.0706
     56 H28         3.2696   -1.7036    0.6688 H         1 <0>         0.0580
     57 H29         1.8454   -4.4024    0.7119 H         1 <0>         0.0679
     58 H30         3.5693   -4.1216    0.3698 H         1 <0>         0.0595
     59 H31        -0.1506   -3.8804    3.8096 H         1 <0>         0.0626
     60 H32         0.3990   -4.5284    2.2418 H         1 <0>         0.0703
     61 H33         0.6315   -5.6996    4.8682 H         1 <0>         0.0592
     62 H34         0.9195   -6.4217    3.2762 H         1 <0>         0.0655
     63 H35         5.4873   -4.8298    2.3459 H         1 <0>         0.0750
     64 H36         5.1010   -4.3387    4.0085 H         1 <0>         0.0653
     65 H37         5.4674   -7.1958    2.9788 H         1 <0>         0.1009
     66 H38         6.4943   -6.3176    4.1249 H         1 <0>         0.0853
     67 H39         2.6245   -7.0653    5.7088 H         1 <0>         0.0855
     68 H40         2.8032   -7.6968    4.0627 H         1 <0>         0.1010
     69 H41         3.8000   -6.0010    0.9669 H         1 <0>         0.0601
     70 H42         3.5263   -7.2205    2.2343 H         1 <0>         0.0540
     71 H43         2.1575   -6.2804    1.5934 H         1 <0>         0.0610
     72 H44        -0.2861   -2.3103   -0.2112 H         1 <0>         0.0619
     73 H45         0.0860   -3.6253    0.9292 H         1 <0>         0.0577
     74 H46        -0.8924   -2.2367    1.4607 H         1 <0>         0.0574
@<TRIPOS>BOND
     1    1    2 1
     2    1   35 1
     3    1   36 1
     4    1   37 1
     5    2    3 1
     6    2    4 1
     7    2   10 1
     8    4    5 1
     9    4   38 1
    10    4   39 1
    11    5    6 1
    12    5   40 1
    13    5   41 1
    14    6    7 1
    15    6   42 1
    16    6   43 1
    17    7    8 1
    18    7    9 1
    19    7   44 1
    20    8   45 1
    21    8   46 1
    22    8   47 1
    23    9   48 1
    24    9   49 1
    25    9   50 1
    26   10   11 1
    27   10   16 1
    28   10   12 1
    29   12   13 1
    30   12   51 1
    31   12   52 1
    32   13   14 1
    33   13   53 1
    34   13   54 1
    35   14   15 1
    36   14   21 1
    37   14   16 1
    38   16   17 1
    39   16   34 1
    40   17   18 1
    41   17   55 1
    42   17   56 1
    43   18   19 1
    44   18   57 1
    45   18   58 1
    46   19   20 1
    47   19   27 1
    48   19   21 1
    49   21   22 1
    50   21   23 1
    51   23   24 1
    52   23   59 1
    53   23   60 1
    54   24   25 1
    55   24   61 1
    56   24   62 1
    57   25   26 1
    58   25   32 1
    59   25   27 1
    60   27   28 1
    61   27   33 1
    62   28   29 1
    63   28   63 1
    64   28   64 1
    65   29   30 1
    66   29   65 1
    67   29   66 1
    68   30   31 2
    69   30   32 1
    70   32   67 1
    71   32   68 1
    72   33   69 1
    73   33   70 1
    74   33   71 1
    75   34   72 1
    76   34   73 1
    77   34   74 1
@<TRIPOS>MOLECULE
ZINC43919278
   77    80     0     0     0
SMALL
USER_CHARGES

@<TRIPOS>ATOM
      1 C1         -0.3427    1.4825    0.1118 C.3       1 <0>        -0.1519
      2 C2          0.0021   -0.0041    0.0020 C.3       1 <0>        -0.0883
      3 H1         -0.9171   -0.5893   -0.0230 H         1 <0>         0.0780
      4 C3          0.7980   -0.2496   -1.2814 C.3       1 <0>        -0.1230
      5 C4         -0.0862    0.0464   -2.4944 C.3       1 <0>        -0.1224
      6 C5          0.7097   -0.1991   -3.7778 C.3       1 <0>        -0.1145
      7 C6         -0.1745    0.0969   -4.9908 C.3       1 <0>        -0.0979
      8 C7         -0.5287    1.5852   -5.0127 C.3       1 <0>        -0.1493
      9 C8          0.5787   -0.2669   -6.2719 C.3       1 <0>        -0.1489
     10 C9          0.8411   -0.4236    1.2107 C.3       1 <0>        -0.0793
     11 H2          1.7961    0.1018    1.2036 H         1 <0>         0.0675
     12 C10         0.0797   -0.1195    2.5144 C.3       1 <0>        -0.1224
     13 C11        -0.0828   -1.4670    3.2551 C.3       1 <0>        -0.1185
     14 C12         1.0558   -2.3312    2.6820 C.3       1 <0>        -0.0710
     15 H3          1.9979   -2.0263    3.1377 H         1 <0>         0.0668
     16 C13         1.0765   -1.9576    1.1895 C.3       1 <0>        -0.0472
     17 C14        -0.1236   -2.5753    0.4666 C.3       1 <0>        -0.1116
     18 C15        -0.1623   -4.0841    0.6893 C.3       1 <0>        -0.1182
     19 C16        -0.3513   -4.3590    2.1862 C.3       1 <0>        -0.0607
     20 H4         -1.2562   -3.8610    2.5343 H         1 <0>         0.0702
     21 C17         0.8424   -3.8062    2.9262 C.3       1 <0>        -0.0656
     22 H5          1.7346   -4.3502    2.6162 H         1 <0>         0.0671
     23 C18         0.6163   -4.0536    4.4228 C.3       1 <0>        -0.0845
     24 C19         0.3612   -5.5146    4.6513 C.2       1 <0>        -0.1570
     25 C20        -0.1411   -6.2968    3.7419 C.2       1 <0>        -0.0878
     26 C21        -0.4832   -5.8571    2.4053 C.3       1 <0>        -0.0140
     27 C22        -1.9162   -6.3083    2.1088 C.3       1 <0>        -0.1001
     28 C23        -2.0306   -7.8161    2.3428 C.3       1 <0>        -0.1228
     29 C24        -1.7528   -8.1337    3.8129 C.3       1 <0>         0.0933
     30 H6         -1.8981   -9.1997    3.9880 H         1 <0>         0.0607
     31 C25        -0.3670   -7.7582    4.0917 C.3       1 <0>        -0.1103
     32 O1         -2.6501   -7.3889    4.6389 O.3       1 <0>        -0.3749
     33 C26        -2.9763   -8.0337    5.8717 C.3       1 <0>         0.0299
     34 C27         0.4378   -6.5672    1.4110 C.3       1 <0>        -0.1468
     35 C28         2.4051   -2.3254    0.5257 C.3       1 <0>        -0.1406
     36 H7          0.5765    2.0678    0.1368 H         1 <0>         0.0508
     37 H8         -0.9404    1.7815   -0.7493 H         1 <0>         0.0540
     38 H9         -0.9097    1.6575    1.0261 H         1 <0>         0.0548
     39 H10         1.6698    0.4045   -1.2990 H         1 <0>         0.0577
     40 H11         1.1232   -1.2894   -1.3139 H         1 <0>         0.0744
     41 H12        -0.9580   -0.6076   -2.4768 H         1 <0>         0.0584
     42 H13        -0.4114    1.0863   -2.4619 H         1 <0>         0.0650
     43 H14         1.5815    0.4549   -3.7954 H         1 <0>         0.0597
     44 H15         1.0349   -1.2390   -3.8103 H         1 <0>         0.0594
     45 H16        -1.0886   -0.4933   -4.9267 H         1 <0>         0.0676
     46 H17         0.3854    2.1753   -5.0768 H         1 <0>         0.0530
     47 H18        -1.1587    1.7961   -5.8769 H         1 <0>         0.0517
     48 H19        -1.0653    1.8444   -4.1000 H         1 <0>         0.0562
     49 H20         0.8311   -1.3272   -6.2563 H         1 <0>         0.0532
     50 H21        -0.0512   -0.0561   -7.1361 H         1 <0>         0.0531
     51 H22         1.4929    0.3232   -6.3360 H         1 <0>         0.0533
     52 H23         0.6520    0.5769    3.1273 H         1 <0>         0.0592
     53 H24        -0.8994    0.3013    2.2856 H         1 <0>         0.0656
     54 H25         0.0414   -1.3318    4.3296 H         1 <0>         0.0621
     55 H26        -1.0523   -1.9127    3.0328 H         1 <0>         0.0670
     56 H27        -1.0425   -2.1310    0.8492 H         1 <0>         0.0643
     57 H28        -0.0455   -2.3707   -0.6012 H         1 <0>         0.0684
     58 H29        -0.9938   -4.5144    0.1311 H         1 <0>         0.0599
     59 H30         0.7747   -4.5272    0.3520 H         1 <0>         0.0676
     60 H31         1.5016   -3.7473    4.9800 H         1 <0>         0.0647
     61 H32        -0.2446   -3.4768    4.7609 H         1 <0>         0.0737
     62 H33         0.6057   -5.9357    5.6153 H         1 <0>         0.0977
     63 H34        -2.6067   -5.7842    2.7695 H         1 <0>         0.0708
     64 H35        -2.1617   -6.0815    1.0713 H         1 <0>         0.0624
     65 H36        -3.0362   -8.1478    2.0841 H         1 <0>         0.0656
     66 H37        -1.3059   -8.3362    1.7164 H         1 <0>         0.0774
     67 H38         0.3194   -8.3830    3.5202 H         1 <0>         0.0825
     68 H39        -0.2014   -7.9104    5.1583 H         1 <0>         0.0638
     69 H40        -3.4504   -8.9933    5.6655 H         1 <0>         0.0396
     70 H41        -2.0661   -8.1949    6.4493 H         1 <0>         0.0382
     71 H42        -3.6611   -7.4048    6.4406 H         1 <0>         0.0845
     72 H43         1.4674   -6.2525    1.5808 H         1 <0>         0.0531
     73 H44         0.3598   -7.6455    1.5497 H         1 <0>         0.0534
     74 H45         0.1421   -6.3094    0.3940 H         1 <0>         0.0627
     75 H46         3.2237   -1.8421    1.0590 H         1 <0>         0.0528
     76 H47         2.5396   -3.4067    0.5565 H         1 <0>         0.0552
     77 H48         2.3984   -1.9895   -0.5112 H         1 <0>         0.0616
@<TRIPOS>BOND
     1    1    2 1
     2    1   36 1
     3    1   37 1
     4    1   38 1
     5    2    3 1
     6    2    4 1
     7    2   10 1
     8    4    5 1
     9    4   39 1
    10    4   40 1
    11    5    6 1
    12    5   41 1
    13    5   42 1
    14    6    7 1
    15    6   43 1
    16    6   44 1
    17    7    8 1
    18    7    9 1
    19    7   45 1
    20    8   46 1
    21    8   47 1
    22    8   48 1
    23    9   49 1
    24    9   50 1
    25    9   51 1
    26   10   11 1
    27   10   16 1
    28   10   12 1
    29   12   13 1
    30   12   52 1
    31   12   53 1
    32   13   14 1
    33   13   54 1
    34   13   55 1
    35   14   15 1
    36   14   21 1
    37   14   16 1
    38   16   17 1
    39   16   35 1
    40   17   18 1
    41   17   56 1
    42   17   57 1
    43   18   19 1
    44   18   58 1
    45   18   59 1
    46   19   20 1
    47   19   26 1
    48   19   21 1
    49   21   22 1
    50   21   23 1
    51   23   24 1
    52   23   60 1
    53   23   61 1
    54   24   25 2
    55   24   62 1
    56   25   31 1
    57   25   26 1
    58   26   27 1
    59   26   34 1
    60   27   28 1
    61   27   63 1
    62   27   64 1
    63   28   29 1
    64   28   65 1
    65   28   66 1
    66   29   30 1
    67   29   31 1
    68   29   32 1
    69   31   67 1
    70   31   68 1
    71   32   33 1
    72   33   69 1
    73   33   70 1
    74   33   71 1
    75   34   72 1
    76   34   73 1
    77   34   74 1
    78   35   75 1
    79   35   76 1
    80   35   77 1
@<TRIPOS>MOLECULE
ZINC13826905
   58    62     0     0     0
SMALL
USER_CHARGES
2-ethyl-4-[[4-[2-(1H-tetrazol-5-yl)phenyl]phenyl]methoxy]-6,7,8,9-tetrahydro-5H-cyclohepta[b]pyridine
@<TRIPOS>ATOM
      1 C1         10.9093    9.7072   -1.1936 C.3       1 <0>        -0.1413
      2 C2         10.5394    8.4712   -0.3714 C.3       1 <0>        -0.0732
      3 C3          9.2677    8.7378    0.3920 C.ar      1 <0>         0.1635
      4 C4          8.1970    7.8790    0.2492 C.ar      1 <0>        -0.2655
      5 C5          7.0262    8.1343    0.9612 C.ar      1 <0>         0.1820
      6 C6          6.9971    9.2575    1.7834 C.ar      1 <0>        -0.1692
      7 C7          8.0998   10.0611    1.8765 C.ar      1 <0>         0.1634
      8 N1          9.1956    9.7888    1.1869 N.ar      1 <0>        -0.5044
      9 C8          8.0710   11.2843    2.7708 C.3       1 <0>        -0.0660
     10 C9          7.1358   12.3265    2.1273 C.3       1 <0>        -0.1101
     11 C10         5.6958   12.0840    2.5344 C.3       1 <0>        -0.1200
     12 C11         5.0893   10.8158    1.9668 C.3       1 <0>        -0.1119
     13 C12         5.7485    9.5757    2.5771 C.3       1 <0>        -0.0682
     14 O1          5.9475    7.3175    0.8521 O.3       1 <0>        -0.2956
     15 C13         6.0709    6.1931   -0.0210 C.3       1 <0>         0.1062
     16 C14         4.7846    5.4079   -0.0137 C.ar      1 <0>        -0.0948
     17 C15         3.7867    5.7120   -0.9222 C.ar      1 <0>        -0.1214
     18 C16         2.6065    4.9969   -0.9200 C.ar      1 <0>        -0.1058
     19 C17         2.4210    3.9661    0.0002 C.ar      1 <0>        -0.0367
     20 C18         3.4280    3.6680    0.9172 C.ar      1 <0>         0.0107
     21 C19         4.6062    4.3863    0.9017 C.ar      1 <0>        -0.1055
     22 C20         1.1557    3.1942    0.0077 C.ar      1 <0>        -0.0358
     23 C21        -0.0686    3.8568    0.0225 C.ar      1 <0>        -0.1099
     24 C22        -1.2446    3.1342    0.0294 C.ar      1 <0>        -0.1318
     25 C23        -1.2166    1.7496    0.0173 C.ar      1 <0>        -0.1220
     26 C24        -0.0126    1.0758    0.0080 C.ar      1 <0>        -0.1004
     27 C25         1.1849    1.7894    0.0004 C.ar      1 <0>         0.0481
     28 C26         2.4777    1.0724   -0.0148 C.2       1 <0>         0.1221
     29 N2          4.0473   -0.4615   -0.0359 N.2       1 <0>        -0.2064
     30 N3          4.5838    0.7104   -0.0350 N.2       1 <0>        -0.1568
     31 N4          3.6760    1.6186   -0.0228 N.2       1 <0>        -0.3855
     32 H1         11.0573   10.5565   -0.5265 H         1 <0>         0.0653
     33 H2         11.8291    9.5144   -1.7458 H         1 <0>         0.0566
     34 H3         10.1051    9.9315   -1.8944 H         1 <0>         0.0506
     35 H4         11.3436    8.2469    0.3294 H         1 <0>         0.0820
     36 H5         10.3914    7.6220   -1.0385 H         1 <0>         0.0769
     37 H6          8.2652    7.0221   -0.4046 H         1 <0>         0.1378
     38 H7          7.7006   11.0077    3.7579 H         1 <0>         0.0833
     39 H8          9.0753   11.6993    2.8562 H         1 <0>         0.0831
     40 H9          7.2164   12.2633    1.0422 H         1 <0>         0.0622
     41 H10         7.4360   13.3233    2.4503 H         1 <0>         0.0688
     42 H11         5.0957   12.9320    2.2045 H         1 <0>         0.0589
     43 H12         5.6478   12.0334    3.6222 H         1 <0>         0.0607
     44 H13         5.2321   10.8026    0.8863 H         1 <0>         0.0602
     45 H14         4.0218   10.7993    2.1868 H         1 <0>         0.0668
     46 H15         5.0589    8.7330    2.5288 H         1 <0>         0.0811
     47 H16         6.0147    9.7722    3.6157 H         1 <0>         0.0733
     48 H17         6.8872    5.5562    0.3198 H         1 <0>         0.0715
     49 H18         6.2790    6.5400   -1.0331 H         1 <0>         0.0685
     50 H19         3.9317    6.5105   -1.6349 H         1 <0>         0.1125
     51 H20         1.8279    5.2354   -1.6295 H         1 <0>         0.1154
     52 H21         3.2881    2.8734    1.6352 H         1 <0>         0.1161
     53 H22         5.3888    4.1533    1.6086 H         1 <0>         0.1136
     54 H23        -0.0982    4.9364    0.0282 H         1 <0>         0.1216
     55 H24        -2.1924    3.6517    0.0405 H         1 <0>         0.1181
     56 H25        -2.1427    1.1939    0.0187 H         1 <0>         0.1194
     57 H26         0.0021   -0.0041    0.0020 H         1 <0>         0.1295
     58 N5          2.6741   -0.2531   -0.0176 N.2       1 <0>        -0.4111
@<TRIPOS>BOND
     1    1    2 1
     2    1   32 1
     3    1   33 1
     4    1   34 1
     5    2    3 1
     6    2   35 1
     7    2   36 1
     8    3    8 ar
     9    3    4 ar
    10    4    5 ar
    11    4   37 1
    12    5    6 ar
    13    5   14 1
    14    6   13 1
    15    6    7 ar
    16    7    8 ar
    17    7    9 1
    18    9   10 1
    19    9   38 1
    20    9   39 1
    21   10   11 1
    22   10   40 1
    23   10   41 1
    24   11   12 1
    25   11   42 1
    26   11   43 1
    27   12   13 1
    28   12   44 1
    29   12   45 1
    30   13   46 1
    31   13   47 1
    32   14   15 1
    33   15   16 1
    34   15   48 1
    35   15   49 1
    36   16   21 ar
    37   16   17 ar
    38   17   18 ar
    39   17   50 1
    40   18   19 ar
    41   18   51 1
    42   19   20 ar
    43   19   22 1
    44   20   21 ar
    45   20   52 1
    46   21   53 1
    47   22   27 ar
    48   22   23 ar
    49   23   24 ar
    50   23   54 1
    51   24   25 ar
    52   24   55 1
    53   25   26 ar
    54   25   56 1
    55   26   27 ar
    56   26   57 1
    57   27   28 1
    58   28   31 2
    59   28   58 1
    60   29   30 2
    61   29   58 1
    62   30   31 1
@<TRIPOS>MOLECULE
ZINC34923289
   62    65     0     0     0
SMALL
USER_CHARGES

@<TRIPOS>ATOM
      1 C1         -0.1148    0.3958    0.6860 C.3       1 <0>        -0.1431
      2 C2         -0.4321   -1.0998    0.6275 C.3       1 <0>        -0.0765
      3 C3         -1.8875   -1.2916    0.2866 C.2       1 <0>         0.2547
      4 C4         -2.2722   -1.4153   -1.0347 C.2       1 <0>        -0.3742
      5 C5         -3.7440   -1.6065   -1.3256 C.3       1 <0>         0.2702
      6 H1         -4.0651   -0.7952   -1.9789 H         1 <0>         0.0770
      7 N1         -4.6649   -1.6463   -0.1585 N.pl3     1 <0>        -0.5210
      8 C6         -6.0355   -1.8105   -0.1866 C.2       1 <0>         0.2340
      9 C7         -6.6903   -1.8183    0.9954 C.2       1 <0>        -0.3069
     10 S1         -5.3579   -1.5918    2.1564 S.3       1 <0>         0.1185
     11 C8         -4.0819   -1.5047    1.0696 C.2       1 <0>         0.3243
     12 N2         -2.7875   -1.3458    1.2548 N.2       1 <0>        -0.5921
     13 C9         -6.7569   -1.9706   -1.4573 C.2       1 <0>        -0.4613
     14 C10        -8.0695   -2.2727   -1.4531 C.2       1 <0>         0.5010
     15 O1         -8.7509   -2.3168   -0.2825 O.3       1 <0>        -0.7023
     16 N3         -8.7226   -2.5381   -2.6449 N.pl3     1 <0>        -0.7510
     17 C11       -10.1503   -2.8666   -2.6403 C.3       1 <0>         0.1784
     18 C12       -10.6143   -3.1098   -4.0534 C.ar      1 <0>        -0.0631
     19 C13       -11.0895   -2.0584   -4.8153 C.ar      1 <0>        -0.1141
     20 C14       -11.5154   -2.2799   -6.1115 C.ar      1 <0>        -0.0942
     21 C15       -11.4672   -3.5531   -6.6473 C.ar      1 <0>        -0.1571
     22 C16       -10.9916   -4.6066   -5.8853 C.ar      1 <0>         0.0933
     23 C17       -10.5594   -4.3823   -4.5889 C.ar      1 <0>        -0.1371
     24 F1        -10.9443   -5.8515   -6.4079 F         1 <0>        -0.1425
     25 C18        -3.9027   -2.8984   -2.0851 C.ar      1 <0>        -0.0806
     26 C19        -4.1444   -4.0763   -1.4027 C.ar      1 <0>        -0.0718
     27 C20        -4.2900   -5.2611   -2.0992 C.ar      1 <0>        -0.1203
     28 C21        -4.1943   -5.2684   -3.4785 C.ar      1 <0>        -0.0867
     29 C22        -3.9536   -4.0908   -4.1608 C.ar      1 <0>        -0.1205
     30 C23        -3.8122   -2.9049   -3.4643 C.ar      1 <0>        -0.0699
     31 C24        -3.5550   -1.6200   -4.2085 C.3       1 <0>        -0.1199
     32 C25        -4.3521   -6.5605   -4.2379 C.3       1 <0>        -0.1085
     33 C26        -1.3309   -1.3648   -2.0699 C.2       1 <0>         0.5700
     34 O2         -1.1469   -0.3236   -2.6760 O.2       1 <0>        -0.5142
     35 O3         -0.6263   -2.4706   -2.3970 O.3       1 <0>        -0.3497
     36 C27         0.3677   -2.3293   -3.4139 C.3       1 <0>         0.0314
     37 H2          0.9379    0.5345    0.9326 H         1 <0>         0.0582
     38 H3         -0.3239    0.8497   -0.2826 H         1 <0>         0.0580
     39 H4         -0.7322    0.8686    1.4498 H         1 <0>         0.0615
     40 H5          0.1853   -1.5726   -0.1363 H         1 <0>         0.0719
     41 H6         -0.2230   -1.5538    1.5961 H         1 <0>         0.0856
     42 H7         -7.7472   -1.9318    1.1867 H         1 <0>         0.2354
     43 H8         -6.2344   -1.8461   -2.3943 H         1 <0>         0.0829
     44 H9         -8.2349   -2.5065   -3.4828 H         1 <0>         0.3858
     45 H10       -10.3146   -3.7643   -2.0444 H         1 <0>         0.0623
     46 H11       -10.7126   -2.0374   -2.2109 H         1 <0>         0.0644
     47 H12       -11.1283   -1.0633   -4.3972 H         1 <0>         0.1311
     48 H13       -11.8864   -1.4579   -6.7057 H         1 <0>         0.1315
     49 H14       -11.8007   -3.7261   -7.6598 H         1 <0>         0.1319
     50 H15       -10.1840   -5.2026   -3.9951 H         1 <0>         0.1359
     51 H16        -4.2192   -4.0706   -0.3253 H         1 <0>         0.1072
     52 H17        -4.4781   -6.1814   -1.5661 H         1 <0>         0.1147
     53 H18        -3.8785   -4.0966   -5.2381 H         1 <0>         0.1148
     54 H19        -2.4845   -1.5076   -4.3802 H         1 <0>         0.0659
     55 H20        -4.0759   -1.6440   -5.1657 H         1 <0>         0.0650
     56 H21        -3.9185   -0.7790   -3.6180 H         1 <0>         0.0687
     57 H22        -5.4019   -6.7068   -4.4921 H         1 <0>         0.0664
     58 H23        -3.7593   -6.5196   -5.1517 H         1 <0>         0.0608
     59 H24        -4.0091   -7.3898   -3.6192 H         1 <0>         0.0618
     60 H25         0.7968   -3.3053   -3.6407 H         1 <0>         0.0935
     61 H26        -0.0886   -1.9153   -4.3130 H         1 <0>         0.0560
     62 H27         1.1532   -1.6596   -3.0637 H         1 <0>         0.0542
@<TRIPOS>BOND
     1    1    2 1
     2    1   37 1
     3    1   38 1
     4    1   39 1
     5    2    3 1
     6    2   40 1
     7    2   41 1
     8    3   12 1
     9    3    4 2
    10    4    5 1
    11    4   33 1
    12    5    6 1
    13    5    7 1
    14    5   25 1
    15    7   11 1
    16    7    8 1
    17    8    9 2
    18    8   13 1
    19    9   10 1
    20    9   42 1
    21   10   11 1
    22   11   12 2
    23   13   14 2
    24   13   43 1
    25   14   15 1
    26   14   16 1
    27   16   17 1
    28   16   44 1
    29   17   18 1
    30   17   45 1
    31   17   46 1
    32   18   23 ar
    33   18   19 ar
    34   19   20 ar
    35   19   47 1
    36   20   21 ar
    37   20   48 1
    38   21   22 ar
    39   21   49 1
    40   22   23 ar
    41   22   24 1
    42   23   50 1
    43   25   30 ar
    44   25   26 ar
    45   26   27 ar
    46   26   51 1
    47   27   28 ar
    48   27   52 1
    49   28   29 ar
    50   28   32 1
    51   29   30 ar
    52   29   53 1
    53   30   31 1
    54   31   54 1
    55   31   55 1
    56   31   56 1
    57   32   57 1
    58   32   58 1
    59   32   59 1
    60   33   34 2
    61   33   35 1
    62   35   36 1
    63   36   60 1
    64   36   61 1
    65   36   62 1
@<TRIPOS>MOLECULE
ZINC36063553
   68    71     0     0     0
SMALL
USER_CHARGES

@<TRIPOS>ATOM
      1 C1         -0.5306    1.1538    0.2103 C.3       1 <0>        -0.1079
      2 C2         -0.3573   -0.3369    0.0735 C.ar      1 <0>        -0.0866
      3 C3          0.3154   -0.8575   -1.0164 C.ar      1 <0>        -0.1308
      4 C4          0.4744   -2.2247   -1.1418 C.ar      1 <0>        -0.0862
      5 C5         -0.0390   -3.0717   -0.1772 C.ar      1 <0>        -0.0770
      6 C6         -0.7107   -2.5512    0.9128 C.ar      1 <0>        -0.0315
      7 C7         -0.8660   -1.1834    1.0405 C.ar      1 <0>        -0.1256
      8 C8         -1.2707   -3.4745    1.9641 C.3       1 <0>        -0.1203
      9 C9          0.1334   -4.5625   -0.3145 C.3       1 <0>         0.2531
     10 H1         -0.4720   -5.0396    0.4562 H         1 <0>         0.0819
     11 C10         1.5835   -4.8910   -0.0372 C.2       1 <0>        -0.3925
     12 C11         2.2977   -5.5393   -1.0265 C.2       1 <0>         0.3031
     13 N1          1.7190   -5.8555   -2.1735 N.2       1 <0>        -0.5975
     14 C12         0.4635   -5.5987   -2.4776 C.2       1 <0>         0.3187
     15 N2         -0.4099   -4.9662   -1.6387 N.pl3     1 <0>        -0.5112
     16 C13        -1.6944   -4.7692   -2.1051 C.2       1 <0>         0.2345
     17 C14        -1.9856   -5.2147   -3.3471 C.2       1 <0>        -0.3082
     18 S1         -0.4331   -5.9179   -3.8601 S.3       1 <0>         0.1429
     19 C15        -2.7094   -4.0991   -1.2795 C.2       1 <0>        -0.4731
     20 C16        -3.9890   -4.0460   -1.6965 C.2       1 <0>         0.5014
     21 O1         -4.3678   -4.7219   -2.8086 O.3       1 <0>        -0.7058
     22 N3         -4.9174   -3.3011   -0.9892 N.pl3     1 <0>        -0.7542
     23 C17        -6.3092   -3.2434   -1.4428 C.3       1 <0>         0.1461
     24 C18        -7.1193   -2.3599   -0.4920 C.3       1 <0>        -0.1097
     25 C19        -6.6073   -0.9204   -0.5727 C.3       1 <0>        -0.1436
     26 C20        -8.5955   -2.3994   -0.8924 C.3       1 <0>        -0.1419
     27 C21         3.7459   -5.8881   -0.7977 C.3       1 <0>        -0.1152
     28 C22         2.1823   -4.5491    1.1813 C.2       1 <0>         0.5378
     29 O2          3.3660   -4.7755    1.3634 O.2       1 <0>        -0.5501
     30 O3          1.4479   -3.9680    2.1557 O.3       1 <0>        -0.3427
     31 C23         2.1453   -3.5453    3.3291 C.3       1 <0>         0.1082
     32 C24         1.1559   -3.0362    4.3455 C.ar      1 <0>        -0.0859
     33 C25         0.7969   -1.7013    4.3520 C.ar      1 <0>        -0.0900
     34 C26        -0.1107   -1.2342    5.2843 C.ar      1 <0>        -0.1223
     35 C27        -0.6596   -2.1022    6.2097 C.ar      1 <0>        -0.1143
     36 C28        -0.3012   -3.4372    6.2025 C.ar      1 <0>        -0.1236
     37 C29         0.6031   -3.9051    5.2675 C.ar      1 <0>        -0.0986
     38 H2          0.3148    1.5691    0.7588 H         1 <0>         0.0632
     39 H3         -0.5787    1.6064   -0.7802 H         1 <0>         0.0611
     40 H4         -1.4533    1.3643    0.7511 H         1 <0>         0.0616
     41 H5          0.7164   -0.1959   -1.7699 H         1 <0>         0.1117
     42 H6          0.9992   -2.6314   -1.9936 H         1 <0>         0.1029
     43 H7         -1.3876   -0.7764    1.8942 H         1 <0>         0.1131
     44 H8         -0.5336   -3.6142    2.7549 H         1 <0>         0.0889
     45 H9         -2.1769   -3.0389    2.3848 H         1 <0>         0.0538
     46 H10        -1.5065   -4.4383    1.5128 H         1 <0>         0.0649
     47 H11        -2.9187   -5.1590   -3.8883 H         1 <0>         0.2316
     48 H12        -2.4290   -3.6492   -0.3385 H         1 <0>         0.0961
     49 H13        -4.6462   -2.8173   -0.1934 H         1 <0>         0.3834
     50 H14        -6.3465   -2.8245   -2.4485 H         1 <0>         0.0495
     51 H15        -6.7302   -4.2487   -1.4521 H         1 <0>         0.0481
     52 H16        -7.0096   -2.7279    0.5281 H         1 <0>         0.0688
     53 H17        -6.7171   -0.5524   -1.5928 H         1 <0>         0.0538
     54 H18        -7.1845   -0.2910    0.1047 H         1 <0>         0.0487
     55 H19        -5.5557   -0.8923   -0.2875 H         1 <0>         0.0562
     56 H20        -8.9602   -3.4250   -0.8349 H         1 <0>         0.0548
     57 H21        -9.1726   -1.7700   -0.2150 H         1 <0>         0.0525
     58 H22        -8.7052   -2.0314   -1.9125 H         1 <0>         0.0553
     59 H23         3.8111   -6.8314   -0.2555 H         1 <0>         0.0788
     60 H24         4.2523   -5.9851   -1.7580 H         1 <0>         0.0638
     61 H25         4.2216   -5.0999   -0.2141 H         1 <0>         0.1116
     62 H26         2.6954   -4.3879    3.7481 H         1 <0>         0.0707
     63 H27         2.8427   -2.7487    3.0702 H         1 <0>         0.0672
     64 H28         1.2257   -1.0232    3.6291 H         1 <0>         0.1219
     65 H29        -0.3906   -0.1912    5.2899 H         1 <0>         0.1213
     66 H30        -1.3681   -1.7371    6.9385 H         1 <0>         0.1199
     67 H31        -0.7298   -4.1153    6.9257 H         1 <0>         0.1215
     68 H32         0.8802   -4.9490    5.2595 H         1 <0>         0.1221
@<TRIPOS>BOND
     1    1    2 1
     2    1   38 1
     3    1   39 1
     4    1   40 1
     5    2    7 ar
     6    2    3 ar
     7    3    4 ar
     8    3   41 1
     9    4    5 ar
    10    4   42 1
    11    5    6 ar
    12    5    9 1
    13    6    7 ar
    14    6    8 1
    15    7   43 1
    16    8   44 1
    17    8   45 1
    18    8   46 1
    19    9   10 1
    20    9   15 1
    21    9   11 1
    22   11   12 2
    23   11   28 1
    24   12   13 1
    25   12   27 1
    26   13   14 2
    27   14   18 1
    28   14   15 1
    29   15   16 1
    30   16   17 2
    31   16   19 1
    32   17   18 1
    33   17   47 1
    34   19   20 2
    35   19   48 1
    36   20   21 1
    37   20   22 1
    38   22   23 1
    39   22   49 1
    40   23   24 1
    41   23   50 1
    42   23   51 1
    43   24   25 1
    44   24   26 1
    45   24   52 1
    46   25   53 1
    47   25   54 1
    48   25   55 1
    49   26   56 1
    50   26   57 1
    51   26   58 1
    52   27   59 1
    53   27   60 1
    54   27   61 1
    55   28   29 2
    56   28   30 1
    57   30   31 1
    58   31   32 1
    59   31   62 1
    60   31   63 1
    61   32   37 ar
    62   32   33 ar
    63   33   34 ar
    64   33   64 1
    65   34   35 ar
    66   34   65 1
    67   35   36 ar
    68   35   66 1
    69   36   37 ar
    70   36   67 1
    71   37   68 1
@<TRIPOS>MOLECULE
ZINC39945523
   75    78     0     0     0
SMALL
USER_CHARGES

@<TRIPOS>ATOM
      1 C1         -1.4468   -0.2459   -0.0112 C.3       1 <0>        -0.1620
      2 C2          0.0653   -0.0397    0.0990 C.3       1 <0>        -0.0815
      3 H1          0.4366   -0.5435    0.9914 H         1 <0>         0.0714
      4 C3          0.3704    1.4566    0.1939 C.3       1 <0>        -0.1127
      5 C4         -0.1959    2.0106    1.5028 C.3       1 <0>        -0.1232
      6 C5          0.1092    3.5068    1.5977 C.3       1 <0>        -0.1143
      7 C6         -0.4571    4.0608    2.9066 C.3       1 <0>        -0.0985
      8 C7          0.2744    3.4228    4.0893 C.3       1 <0>        -0.1495
      9 C8         -0.2624    5.5779    2.9449 C.3       1 <0>        -0.1480
     10 C9          0.7475   -0.6197   -1.1322 C.3       1 <0>        -0.0781
     11 H2          1.8028   -0.3486   -1.1537 H         1 <0>         0.0653
     12 C10         0.0448   -0.1184   -2.4220 C.3       1 <0>        -0.1220
     13 C11        -0.7062   -1.3430   -3.0180 C.3       1 <0>        -0.1174
     14 C12        -0.8028   -2.2886   -1.8073 C.3       1 <0>        -0.0982
     15 H3         -1.5398   -1.8578   -1.1029 H         1 <0>         0.0943
     16 C13         0.6132   -2.1531   -1.2080 C.3       1 <0>        -0.0425
     17 C14         0.7114   -2.9091    0.0854 C.3       1 <0>        -0.0989
     18 C15         0.1438   -4.3302   -0.0358 C.3       1 <0>        -0.1108
     19 C16        -0.2390   -4.7156   -1.4515 C.3       1 <0>        -0.0626
     20 H4          0.6669   -4.8016   -2.0649 H         1 <0>         0.0693
     21 C17        -1.1925   -3.7056   -2.0909 C.3       1 <0>        -0.0674
     22 H5         -2.2067   -3.8815   -1.6840 H         1 <0>         0.0637
     23 C18        -1.2401   -4.0114   -3.5946 C.3       1 <0>        -0.0679
     24 C19        -1.7053   -5.4345   -3.7521 C.2       1 <0>        -0.2001
     25 C20        -1.5649   -6.3349   -2.8321 C.2       1 <0>        -0.0680
     26 C21        -0.8750   -6.1022   -1.5093 C.3       1 <0>        -0.0112
     27 C22        -1.8863   -6.3418   -0.3980 C.3       1 <0>        -0.0996
     28 C23        -3.2113   -6.8347   -0.9744 C.3       1 <0>        -0.0800
     29 C24        -3.0666   -8.0382   -1.8940 C.3       1 <0>        -0.1523
     30 H6         -4.0552   -8.2798   -2.3112 H         1 <0>         0.0521
     31 C25        -2.1156   -7.7326   -3.0577 C.3       1 <0>        -0.0647
     32 C26        -2.5775   -9.2361   -1.1248 C.2       1 <0>         0.4991
     33 O1         -3.0376  -10.3406   -1.3591 O.co2     1 <0>        -0.7079
     34 O2         -1.7211   -9.1019   -0.2673 O.co2     1 <0>        -0.6834
     35 C27         0.2578   -7.1258   -1.3707 C.3       1 <0>        -0.1433
     36 C28         1.7060   -2.6127   -2.1846 C.3       1 <0>        -0.1493
     37 H7         -1.7627   -0.0749   -1.0403 H         1 <0>         0.0667
     38 H8         -1.6966   -1.2658    0.2810 H         1 <0>         0.0638
     39 H9         -1.9581    0.4563    0.6473 H         1 <0>         0.0511
     40 H10         1.4494    1.6095    0.1712 H         1 <0>         0.0574
     41 H11        -0.0878    1.9749   -0.6484 H         1 <0>         0.0599
     42 H12        -1.2749    1.8576    1.5254 H         1 <0>         0.0639
     43 H13         0.2623    1.4922    2.3451 H         1 <0>         0.0625
     44 H14         1.1882    3.6598    1.5750 H         1 <0>         0.0593
     45 H15        -0.3490    4.0252    0.7554 H         1 <0>         0.0590
     46 H16        -1.5203    3.8292    2.9693 H         1 <0>         0.0679
     47 H17         0.1358    2.3420    4.0620 H         1 <0>         0.0580
     48 H18         1.3377    3.6544    4.0266 H         1 <0>         0.0525
     49 H19        -0.1290    3.8175    5.0218 H         1 <0>         0.0509
     50 H20        -0.7836    6.0325    2.1023 H         1 <0>         0.0526
     51 H21        -0.6658    5.9726    3.8774 H         1 <0>         0.0523
     52 H22         0.8009    5.8095    2.8822 H         1 <0>         0.0528
     53 H23        -0.6651    0.6696   -2.1754 H         1 <0>         0.0665
     54 H24         0.7852    0.2469   -3.1316 H         1 <0>         0.0551
     55 H25        -1.7073   -1.0472   -3.3415 H         1 <0>         0.0557
     56 H26        -0.1581   -1.7855   -3.8396 H         1 <0>         0.0705
     57 H27         1.7665   -2.9736    0.3951 H         1 <0>         0.0511
     58 H28         0.1715   -2.4003    0.8936 H         1 <0>         0.0599
     59 H29         0.8920   -5.0361    0.3486 H         1 <0>         0.0588
     60 H30        -0.7339   -4.4052    0.6188 H         1 <0>         0.0623
     61 H31        -1.9448   -3.3416   -4.0824 H         1 <0>         0.0615
     62 H32        -0.2502   -3.9006   -4.0281 H         1 <0>         0.0641
     63 H33        -2.1790   -5.7152   -4.6796 H         1 <0>         0.0939
     64 H34        -1.4928   -7.0719    0.3085 H         1 <0>         0.0956
     65 H35        -2.0725   -5.4054    0.1356 H         1 <0>         0.0426
     66 H36        -3.8738   -7.1029   -0.1439 H         1 <0>         0.0425
     67 H37        -3.6829   -6.0168   -1.5261 H         1 <0>         0.0354
     68 H38        -2.6735   -7.7554   -4.0000 H         1 <0>         0.0500
     69 H39        -1.3145   -8.4659   -3.1019 H         1 <0>         0.0692
     70 H40         0.7675   -6.9769   -0.4188 H         1 <0>         0.0475
     71 H41        -0.1564   -8.1334   -1.4073 H         1 <0>         0.0894
     72 H42         0.9677   -6.9949   -2.1874 H         1 <0>         0.0312
     73 H43         2.6617   -2.1788   -1.8908 H         1 <0>         0.0465
     74 H44         1.7787   -3.7001   -2.1630 H         1 <0>         0.0634
     75 H45         1.4531   -2.2855   -3.1931 H         1 <0>         0.0568
@<TRIPOS>BOND
     1    1    2 1
     2    1   37 1
     3    1   38 1
     4    1   39 1
     5    2    3 1
     6    2    4 1
     7    2   10 1
     8    4    5 1
     9    4   40 1
    10    4   41 1
    11    5    6 1
    12    5   42 1
    13    5   43 1
    14    6    7 1
    15    6   44 1
    16    6   45 1
    17    7    8 1
    18    7    9 1
    19    7   46 1
    20    8   47 1
    21    8   48 1
    22    8   49 1
    23    9   50 1
    24    9   51 1
    25    9   52 1
    26   10   11 1
    27   10   16 1
    28   10   12 1
    29   12   13 1
    30   12   53 1
    31   12   54 1
    32   13   14 1
    33   13   55 1
    34   13   56 1
    35   14   15 1
    36   14   21 1
    37   14   16 1
    38   16   17 1
    39   16   36 1
    40   17   18 1
    41   17   57 1
    42   17   58 1
    43   18   19 1
    44   18   59 1
    45   18   60 1
    46   19   20 1
    47   19   26 1
    48   19   21 1
    49   21   22 1
    50   21   23 1
    51   23   24 1
    52   23   61 1
    53   23   62 1
    54   24   25 2
    55   24   63 1
    56   25   31 1
    57   25   26 1
    58   26   27 1
    59   26   35 1
    60   27   28 1
    61   27   64 1
    62   27   65 1
    63   28   29 1
    64   28   66 1
    65   28   67 1
    66   29   30 1
    67   29   31 1
    68   29   32 1
    69   31   68 1
    70   31   69 1
    71   32   33 2
    72   32   34 1
    73   35   70 1
    74   35   71 1
    75   35   72 1
    76   36   73 1
    77   36   74 1
    78   36   75 1
@<TRIPOS>MOLECULE
ZINC59074129
   43    45     0     0     0
SMALL
USER_CHARGES

@<TRIPOS>ATOM
      1 C1         -1.6575    1.3757    0.1598 C.3       1 <0>        -0.1085
      2 C2         -1.5266   -0.1256    0.1507 C.2       1 <0>         0.1484
      3 C3         -1.1931   -0.7760    1.2741 C.2       1 <0>        -0.0854
      4 N1         -1.0751   -2.1302    1.2659 N.2       1 <0>        -0.4704
      5 C4         -0.7489   -2.7663    2.3647 C.2       1 <0>         0.4959
      6 N2         -0.5163   -4.0691    2.8155 N.2       1 <0>        -0.6283
      7 C5         -0.1856   -4.1955    4.1301 C.2       1 <0>         0.5565
      8 S1         -0.3610   -2.4269    4.0664 S.3       1 <0>        -0.6077
      9 N3          0.1260   -5.1761    5.0327 N.2       1 <0>        -0.5539
     10 C6          0.2342   -4.8664    6.3925 C.ar      1 <0>         0.1611
     11 C7         -0.3812   -3.7284    6.8977 C.ar      1 <0>        -0.1687
     12 C8         -0.2731   -3.4245    8.2405 C.ar      1 <0>        -0.1198
     13 C9          0.4487   -4.2532    9.0831 C.ar      1 <0>         0.0336
     14 C10         1.0636   -5.3881    8.5815 C.ar      1 <0>        -0.1272
     15 C11         0.9525   -5.6995    7.2406 C.ar      1 <0>        -0.1160
     16 F1          0.5536   -3.9538   10.3963 F         1 <0>        -0.1542
     17 N4         -1.7517   -0.8350   -1.0215 N.pl3     1 <0>        -0.7358
     18 C12        -2.1163   -0.1241   -2.2495 C.3       1 <0>         0.1326
     19 C13        -2.3058   -1.1318   -3.3850 C.3       1 <0>        -0.0956
     20 C14        -2.6809   -0.4005   -4.6482 C.ar      1 <0>        -0.0575
     21 C15        -4.0114   -0.1629   -4.9399 C.ar      1 <0>        -0.0975
     22 C16        -4.3567    0.5072   -6.0983 C.ar      1 <0>        -0.0961
     23 C17        -3.3708    0.9412   -6.9664 C.ar      1 <0>        -0.0363
     24 C18        -2.0386    0.7037   -6.6741 C.ar      1 <0>        -0.0284
     25 C19        -1.6945    0.0373   -5.5116 C.ar      1 <0>        -0.0943
     26 Cl1        -0.8003    1.2471   -7.7627 Cl        1 <0>        -0.0493
     27 Cl2        -3.8040    1.7825   -8.4218 Cl        1 <0>        -0.0520
     28 H1         -0.6947    1.8258   -0.0823 H         1 <0>         0.0713
     29 H2         -2.3973    1.6804   -0.5804 H         1 <0>         0.0659
     30 H3         -1.9750    1.7068    1.1485 H         1 <0>         0.0749
     31 H4         -1.0181   -0.2242    2.1858 H         1 <0>         0.0982
     32 H5         -0.9437   -3.0814    6.2408 H         1 <0>         0.1359
     33 H6         -0.7515   -2.5397    8.6338 H         1 <0>         0.1237
     34 H7          1.6263   -6.0329    9.2403 H         1 <0>         0.1286
     35 H8          1.4279   -6.5874    6.8507 H         1 <0>         0.1317
     36 H9         -1.6675   -1.8013   -1.0274 H         1 <0>         0.4099
     37 H10        -3.0455    0.4230   -2.0903 H         1 <0>         0.0560
     38 H11        -1.3232    0.5756   -2.5133 H         1 <0>         0.0556
     39 H12        -1.3766   -1.6789   -3.5442 H         1 <0>         0.0866
     40 H13        -3.0989   -1.8315   -3.1212 H         1 <0>         0.0878
     41 H14        -4.7812   -0.5016   -4.2624 H         1 <0>         0.1410
     42 H15        -5.3962    0.6918   -6.3259 H         1 <0>         0.1432
     43 H16        -0.6552   -0.1447   -5.2809 H         1 <0>         0.1442
@<TRIPOS>BOND
     1    1    2 1
     2    1   28 1
     3    1   29 1
     4    1   30 1
     5    2    3 2
     6    2   17 1
     7    3    4 1
     8    3   31 1
     9    4    5 2
    10    5    8 1
    11    5    6 1
    12    6    7 2
    13    7    8 1
    14    7    9 1
    15    9   10 1
    16   10   15 ar
    17   10   11 ar
    18   11   12 ar
    19   11   32 1
    20   12   13 ar
    21   12   33 1
    22   13   14 ar
    23   13   16 1
    24   14   15 ar
    25   14   34 1
    26   15   35 1
    27   17   18 1
    28   17   36 1
    29   18   19 1
    30   18   37 1
    31   18   38 1
    32   19   20 1
    33   19   39 1
    34   19   40 1
    35   20   25 ar
    36   20   21 ar
    37   21   22 ar
    38   21   41 1
    39   22   23 ar
    40   22   42 1
    41   23   24 ar
    42   23   27 1
    43   24   25 ar
    44   24   26 1
    45   25   43 1
@<TRIPOS>MOLECULE
ZINC25498682
   62    65     0     0     0
SMALL
USER_CHARGES
2-[(4-cyclohexylphenyl)methylsulfanyl]-5-[(4-ethylphenyl)methyl]-6-methyl-3H-pyrimidin-4-one
@<TRIPOS>ATOM
      1 C1          5.5261   -2.5869   -1.6330 C.3       1 <0>        -0.1456
      2 C2          4.7029   -1.8893   -2.7178 C.3       1 <0>        -0.0812
      3 C3          3.5498   -1.1575   -2.0806 C.ar      1 <0>        -0.1027
      4 C4          3.7028    0.1558   -1.6772 C.ar      1 <0>        -0.1238
      5 C5          2.6449    0.8274   -1.0937 C.ar      1 <0>        -0.1240
      6 C6          1.4336    0.1858   -0.9140 C.ar      1 <0>        -0.0542
      7 C7          1.2822   -1.1291   -1.3126 C.ar      1 <0>        -0.0999
      8 C8          2.3389   -1.7993   -1.9001 C.ar      1 <0>        -0.1205
      9 C9          0.2802    0.9180   -0.2779 C.3       1 <0>        -0.0026
     10 C10        -0.5882    1.5181   -1.3533 C.ar      1 <0>        -0.3364
     11 C11        -0.3966    2.8069   -1.7607 C.ar      1 <0>         0.1798
     12 N1         -1.1714    3.3301   -2.7074 N.ar      1 <0>        -0.6245
     13 C12        -2.1345    2.6274   -3.2721 C.ar      1 <0>         0.3325
     14 N2         -2.3718    1.3373   -2.9060 N.ar      1 <0>        -0.6387
     15 C13        -1.6088    0.7599   -1.9533 C.ar      1 <0>         0.5045
     16 O1         -1.8041   -0.3964   -1.6166 O.3       1 <0>        -0.6143
     17 S1         -3.1307    3.3705   -4.5211 S.3       1 <0>        -0.0438
     18 C14        -2.3824    5.0175   -4.5815 C.3       1 <0>        -0.0608
     19 C15        -3.0940    5.8551   -5.6125 C.ar      1 <0>        -0.0684
     20 C16        -2.6499    5.8645   -6.9216 C.ar      1 <0>        -0.1007
     21 C17        -3.3059    6.6286   -7.8685 C.ar      1 <0>        -0.1148
     22 C18        -4.3990    7.3922   -7.5040 C.ar      1 <0>        -0.0804
     23 C19        -4.8400    7.3869   -6.1939 C.ar      1 <0>        -0.1178
     24 C20        -4.1875    6.6183   -5.2482 C.ar      1 <0>        -0.1003
     25 C21        -5.1103    8.2302   -8.5350 C.3       1 <0>        -0.0446
     26 C22        -5.6452    7.3253   -9.6468 C.3       1 <0>        -0.1120
     27 C23        -6.3674    8.1760  -10.6936 C.3       1 <0>        -0.1202
     28 C24        -5.3895    9.1914  -11.2885 C.3       1 <0>        -0.1210
     29 C25        -4.8547   10.0961  -10.1766 C.3       1 <0>        -0.1201
     30 C26        -4.1325    9.2455   -9.1299 C.3       1 <0>        -0.1109
     31 C27         0.6944    3.6385   -1.1370 C.3       1 <0>        -0.0996
     32 H1          6.3677   -3.1211   -2.0980 H         1 <0>         0.0526
     33 H2          4.8895   -3.3041   -1.0940 H         1 <0>         0.0550
     34 H3          5.9127   -1.8371   -0.9271 H         1 <0>         0.0542
     35 H4          5.3395   -1.1722   -3.2567 H         1 <0>         0.0662
     36 H5          4.3163   -2.6391   -3.4237 H         1 <0>         0.0670
     37 H6          4.6490    0.6572   -1.8183 H         1 <0>         0.1122
     38 H7          2.7645    1.8533   -0.7784 H         1 <0>         0.1172
     39 H8          0.3373   -1.6318   -1.1682 H         1 <0>         0.1302
     40 H9          2.2192   -2.8253   -2.2157 H         1 <0>         0.1131
     41 H10        -0.3142    0.2141    0.3231 H         1 <0>         0.0696
     42 H11         0.6667    1.7182    0.3704 H         1 <0>         0.0588
     43 H12        -1.3199    4.9279   -4.8517 H         1 <0>         0.0974
     44 H13        -2.4708    5.4967   -3.5953 H         1 <0>         0.0977
     45 H14        -1.7930    5.2716   -7.2053 H         1 <0>         0.1234
     46 H15        -2.9616    6.6326   -8.8921 H         1 <0>         0.1189
     47 H16        -5.6940    7.9834   -5.9090 H         1 <0>         0.1192
     48 H17        -4.5317    6.6144   -4.2245 H         1 <0>         0.1238
     49 H18        -5.9443    8.7558   -8.0469 H         1 <0>         0.0754
     50 H19        -4.8076    6.7931  -10.1213 H         1 <0>         0.0649
     51 H20        -6.3482    6.5953   -9.2191 H         1 <0>         0.0644
     52 H21        -6.7520    7.5255  -11.4929 H         1 <0>         0.0613
     53 H22        -7.2051    8.7082  -10.2191 H         1 <0>         0.0610
     54 H23        -4.5519    8.6592  -11.7629 H         1 <0>         0.0614
     55 H24        -5.9087    9.8030  -12.0411 H         1 <0>         0.0588
     56 H25        -4.1518   10.8262  -10.6043 H         1 <0>         0.0606
     57 H26        -5.6924   10.6283   -9.7021 H         1 <0>         0.0610
     58 H27        -3.7480    9.8960   -8.3306 H         1 <0>         0.0629
     59 H28        -3.2949    8.7134   -9.6044 H         1 <0>         0.0646
     60 H29         0.6954    4.6410   -1.5896 H         1 <0>         0.0628
     61 H30         1.6678    3.1565   -1.3113 H         1 <0>         0.0671
     62 H31         0.5165    3.7248   -0.0549 H         1 <0>         0.0645
@<TRIPOS>BOND
     1    1    2 1
     2    1   32 1
     3    1   33 1
     4    1   34 1
     5    2    3 1
     6    2   35 1
     7    2   36 1
     8    3    8 ar
     9    3    4 ar
    10    4    5 ar
    11    4   37 1
    12    5    6 ar
    13    5   38 1
    14    6    7 ar
    15    6    9 1
    16    7    8 ar
    17    7   39 1
    18    8   40 1
    19    9   41 1
    20    9   42 1
    21    9   10 1
    22   10   15 ar
    23   10   11 ar
    24   11   12 ar
    25   11   31 1
    26   12   13 ar
    27   13   17 1
    28   13   14 ar
    29   14   15 ar
    30   15   16 1
    31   17   18 1
    32   18   19 1
    33   18   43 1
    34   18   44 1
    35   19   24 ar
    36   19   20 ar
    37   20   21 ar
    38   20   45 1
    39   21   22 ar
    40   21   46 1
    41   22   23 ar
    42   22   25 1
    43   23   24 ar
    44   23   47 1
    45   24   48 1
    46   25   30 1
    47   25   26 1
    48   25   49 1
    49   26   27 1
    50   26   50 1
    51   26   51 1
    52   27   28 1
    53   27   52 1
    54   27   53 1
    55   28   29 1
    56   28   54 1
    57   28   55 1
    58   29   30 1
    59   29   56 1
    60   29   57 1
    61   30   58 1
    62   30   59 1
    63   31   60 1
    64   31   61 1
    65   31   62 1
@<TRIPOS>MOLECULE
ZINC35703749
   65    68     0     0     0
SMALL
USER_CHARGES

@<TRIPOS>ATOM
      1 C1          1.4475    0.3795   -0.2759 C.3       1 <0>        -0.1161
      2 C2          0.8092   -0.9722   -0.0847 C.ar      1 <0>        -0.0365
      3 C3          0.6582   -1.8241   -1.1631 C.ar      1 <0>        -0.1264
      4 C4          0.0729   -3.0638   -0.9877 C.ar      1 <0>        -0.1184
      5 C5         -0.3612   -3.4522    0.2662 C.ar      1 <0>        -0.1299
      6 C6         -0.2095   -2.6009    1.3444 C.ar      1 <0>        -0.0892
      7 C7          0.3800   -1.3625    1.1698 C.ar      1 <0>        -0.0672
      8 C8          0.5502   -0.4364    2.3464 C.3       1 <0>         0.2552
      9 H1          1.1723    0.3989    2.0247 H         1 <0>         0.0773
     10 C9         -0.8123    0.1105    2.7094 C.2       1 <0>        -0.3930
     11 C10        -1.2746   -0.1114    3.9925 C.2       1 <0>         0.3010
     12 N1         -0.5383   -0.7815    4.8639 N.2       1 <0>        -0.5976
     13 C11         0.6534   -1.2830    4.6123 C.2       1 <0>         0.3198
     14 N2          1.2871   -1.1742    3.4068 N.pl3     1 <0>        -0.5123
     15 C12         2.5353   -1.7548    3.3011 C.2       1 <0>         0.2341
     16 C13         3.0293   -2.3821    4.3913 C.2       1 <0>        -0.3061
     17 S1          1.7207   -2.1494    5.5752 S.3       1 <0>         0.1427
     18 C14         3.2996   -1.6931    2.0470 C.2       1 <0>        -0.4682
     19 C15         4.4399   -2.3982    1.9179 C.2       1 <0>         0.5020
     20 O1          4.8092   -3.2725    2.8854 O.3       1 <0>        -0.7037
     21 N3          5.2348   -2.2298    0.7967 N.pl3     1 <0>        -0.7512
     22 C16         6.4159   -3.0746    0.6026 C.3       1 <0>         0.1789
     23 C17         7.1691   -2.6122   -0.6180 C.ar      1 <0>        -0.1018
     24 C18         6.8655   -3.1414   -1.8586 C.ar      1 <0>        -0.0754
     25 C19         7.5552   -2.7179   -2.9787 C.ar      1 <0>        -0.1562
     26 C20         8.5506   -1.7630   -2.8581 C.ar      1 <0>         0.0925
     27 C21         8.8538   -1.2337   -1.6152 C.ar      1 <0>        -0.1562
     28 C22         8.1592   -1.6550   -0.4972 C.ar      1 <0>        -0.0737
     29 F1          9.2259   -1.3485   -3.9524 F         1 <0>        -0.1440
     30 C23        -2.6264    0.4138    4.4022 C.3       1 <0>        -0.1156
     31 C24        -1.5795    0.8185    1.7765 C.2       1 <0>         0.5408
     32 O2         -2.6473    1.3036    2.1082 O.2       1 <0>        -0.5452
     33 O3         -1.1361    0.9641    0.5082 O.3       1 <0>        -0.3376
     34 C25        -1.9385    1.7525   -0.3731 C.3       1 <0>         0.1200
     35 C26        -2.0714    3.1694    0.1884 C.3       1 <0>        -0.1809
     36 C27        -1.2764    1.8101   -1.7513 C.3       1 <0>        -0.1390
     37 C28        -3.3267    1.1219   -0.5002 C.3       1 <0>        -0.1806
     38 H2          2.5133    0.3122   -0.0577 H         1 <0>         0.0649
     39 H3          1.3075    0.7049   -1.3067 H         1 <0>         0.0595
     40 H4          0.9833    1.0992    0.3985 H         1 <0>         0.0773
     41 H5          0.9974   -1.5207   -2.1425 H         1 <0>         0.1131
     42 H6         -0.0457   -3.7290   -1.8302 H         1 <0>         0.1121
     43 H7         -0.8193   -4.4206    0.4030 H         1 <0>         0.1117
     44 H8         -0.5489   -2.9041    2.3238 H         1 <0>         0.1017
     45 H9          3.9735   -2.8920    4.5131 H         1 <0>         0.2308
     46 H10         2.9468   -1.0824    1.2291 H         1 <0>         0.0931
     47 H11         5.0097   -1.5526    0.1398 H         1 <0>         0.3853
     48 H12         7.0621   -3.0022    1.4774 H         1 <0>         0.0666
     49 H13         6.1036   -4.1100    0.4663 H         1 <0>         0.0571
     50 H14         6.0892   -3.8865   -1.9523 H         1 <0>         0.1337
     51 H15         7.3181   -3.1317   -3.9477 H         1 <0>         0.1333
     52 H16         9.6303   -0.4891   -1.5199 H         1 <0>         0.1335
     53 H17         8.3924   -1.2390    0.4718 H         1 <0>         0.1345
     54 H18        -3.3981   -0.2943    4.1001 H         1 <0>         0.0776
     55 H19        -2.6538    0.5414    5.4843 H         1 <0>         0.0628
     56 H20        -2.8049    1.3741    3.9185 H         1 <0>         0.1137
     57 H21        -1.0824    3.6187    0.2790 H         1 <0>         0.0553
     58 H22        -2.6835    3.7708   -0.4838 H         1 <0>         0.0604
     59 H23        -2.5431    3.1284    1.1703 H         1 <0>         0.0840
     60 H24        -1.2599    0.8117   -2.1884 H         1 <0>         0.0631
     61 H25        -1.8419    2.4807   -2.3983 H         1 <0>         0.0680
     62 H26        -0.2558    2.1788   -1.6489 H         1 <0>         0.0645
     63 H27        -3.7984    1.0808    0.4816 H         1 <0>         0.0875
     64 H28        -3.9388    1.7232   -1.1724 H         1 <0>         0.0579
     65 H29        -3.2320    0.1124   -0.9002 H         1 <0>         0.0548
@<TRIPOS>BOND
     1    1    2 1
     2    1   38 1
     3    1   39 1
     4    1   40 1
     5    2    7 ar
     6    2    3 ar
     7    3    4 ar
     8    3   41 1
     9    4    5 ar
    10    4   42 1
    11    5    6 ar
    12    5   43 1
    13    6    7 ar
    14    6   44 1
    15    7    8 1
    16    8    9 1
    17    8   14 1
    18    8   10 1
    19   10   11 2
    20   10   31 1
    21   11   12 1
    22   11   30 1
    23   12   13 2
    24   13   17 1
    25   13   14 1
    26   14   15 1
    27   15   16 2
    28   15   18 1
    29   16   17 1
    30   16   45 1
    31   18   19 2
    32   18   46 1
    33   19   20 1
    34   19   21 1
    35   21   22 1
    36   21   47 1
    37   22   23 1
    38   22   48 1
    39   22   49 1
    40   23   28 ar
    41   23   24 ar
    42   24   25 ar
    43   24   50 1
    44   25   26 ar
    45   25   51 1
    46   26   27 ar
    47   26   29 1
    48   27   28 ar
    49   27   52 1
    50   28   53 1
    51   30   54 1
    52   30   55 1
    53   30   56 1
    54   31   32 2
    55   31   33 1
    56   33   34 1
    57   34   35 1
    58   34   36 1
    59   34   37 1
    60   35   57 1
    61   35   58 1
    62   35   59 1
    63   36   60 1
    64   36   61 1
    65   36   62 1
    66   37   63 1
    67   37   64 1
    68   37   65 1
@<TRIPOS>MOLECULE
ZINC36063274
   64    66     0     0     0
SMALL
USER_CHARGES

@<TRIPOS>ATOM
      1 C1         -0.1237    0.6996    0.3799 C.3       1 <0>        -0.1249
      2 C2          0.0217   -0.7865    0.0460 C.3       1 <0>        -0.0809
      3 C3          0.7772   -0.9388   -1.2490 C.2       1 <0>         0.3055
      4 C4          2.1589   -0.9396   -1.2414 C.2       1 <0>        -0.3889
      5 C5          2.8712   -1.0959   -2.5663 C.3       1 <0>         0.2598
      6 H1          3.5119   -1.9753   -2.5012 H         1 <0>         0.0730
      7 N1          2.0217   -1.2371   -3.7789 N.pl3     1 <0>        -0.5117
      8 C6          2.4520   -1.3909   -5.0817 C.2       1 <0>         0.2318
      9 C7          1.5100   -1.5030   -6.0440 C.2       1 <0>        -0.3055
     10 S1          0.0033   -1.3901   -5.0997 S.3       1 <0>         0.1379
     11 C8          0.6711   -1.2109   -3.5703 C.2       1 <0>         0.3200
     12 N2          0.1129   -1.0763   -2.3849 N.2       1 <0>        -0.5955
     13 C9          3.8842   -1.4308   -5.4105 C.2       1 <0>        -0.4711
     14 C10         4.2806   -1.7617   -6.6544 C.2       1 <0>         0.5010
     15 O1          3.3618   -1.9277   -7.6368 O.3       1 <0>        -0.7047
     16 N3          5.6269   -1.9324   -6.9296 N.pl3     1 <0>        -0.7548
     17 C11         6.0679   -2.1803   -8.3045 C.3       1 <0>         0.1458
     18 C12         7.5754   -2.4410   -8.3174 C.3       1 <0>        -0.1101
     19 C13         8.0150   -2.8221   -9.7325 C.3       1 <0>        -0.1421
     20 C14         8.3155   -1.1765   -7.8767 C.3       1 <0>        -0.1439
     21 C15         3.7592    0.1062   -2.7603 C.ar      1 <0>        -0.0732
     22 C16         3.2013    1.3395   -3.0406 C.ar      1 <0>        -0.0893
     23 C17         4.0158    2.4422   -3.2185 C.ar      1 <0>        -0.1205
     24 C18         5.3881    2.3116   -3.1157 C.ar      1 <0>        -0.0788
     25 C19         5.9459    1.0785   -2.8344 C.ar      1 <0>        -0.1178
     26 C20         5.1312   -0.0233   -2.6523 C.ar      1 <0>        -0.0769
     27 C21         6.2761    3.5135   -3.3106 C.3       1 <0>        -0.0538
     28 C22         7.0900    3.7580   -2.0383 C.3       1 <0>        -0.1412
     29 C23         7.2260    3.2610   -4.4831 C.3       1 <0>        -0.1420
     30 C24         2.8757   -0.7999   -0.0468 C.2       1 <0>         0.5349
     31 O2          2.2862   -0.5652    0.9938 O.2       1 <0>        -0.5447
     32 O3          4.2213   -0.9253   -0.0476 O.3       1 <0>        -0.3566
     33 C25         4.8880   -0.7706    1.2068 C.3       1 <0>         0.0423
     34 H2          0.8647    1.1477    0.4810 H         1 <0>         0.0593
     35 H3         -0.6694    1.2000   -0.4201 H         1 <0>         0.0462
     36 H4         -0.6701    0.8097    1.3166 H         1 <0>         0.0549
     37 H5          0.5674   -1.2868    0.8460 H         1 <0>         0.1081
     38 H6         -0.9667   -1.2346   -0.0551 H         1 <0>         0.0681
     39 H7          1.6373   -1.6279   -7.1091 H         1 <0>         0.2357
     40 H8          4.6186   -1.1947   -4.6546 H         1 <0>         0.0930
     41 H9          6.2781   -1.8879   -6.2120 H         1 <0>         0.3836
     42 H10         5.5453   -3.0501   -8.7024 H         1 <0>         0.0529
     43 H11         5.8445   -1.3090   -8.9203 H         1 <0>         0.0453
     44 H12         7.8091   -3.2561   -7.6325 H         1 <0>         0.0697
     45 H13         7.7813   -2.0071  -10.4174 H         1 <0>         0.0551
     46 H14         9.0890   -3.0079   -9.7417 H         1 <0>         0.0526
     47 H15         7.4877   -3.7230  -10.0464 H         1 <0>         0.0552
     48 H16         8.0819   -0.3614   -8.5617 H         1 <0>         0.0538
     49 H17         8.0024   -0.9049   -6.8686 H         1 <0>         0.0556
     50 H18         9.3895   -1.3622   -7.8859 H         1 <0>         0.0491
     51 H19         2.1291    1.4416   -3.1210 H         1 <0>         0.1036
     52 H20         3.5800    3.4056   -3.4383 H         1 <0>         0.1126
     53 H21         7.0181    0.9764   -2.7544 H         1 <0>         0.1144
     54 H22         5.5668   -0.9860   -2.4289 H         1 <0>         0.1174
     55 H23         5.6617    4.3886   -3.5227 H         1 <0>         0.0721
     56 H24         7.7323    4.6273   -2.1793 H         1 <0>         0.0532
     57 H25         6.4133    3.9379   -1.2030 H         1 <0>         0.0537
     58 H26         7.7043    2.8829   -1.8263 H         1 <0>         0.0558
     59 H27         6.6461    3.0868   -5.3895 H         1 <0>         0.0570
     60 H28         7.8683    4.1303   -4.6241 H         1 <0>         0.0526
     61 H29         7.8403    2.3859   -4.2711 H         1 <0>         0.0560
     62 H30         5.9616   -0.8949    1.0654 H         1 <0>         0.0886
     63 H31         4.6868    0.2240    1.6050 H         1 <0>         0.0509
     64 H32         4.5242   -1.5227    1.9068 H         1 <0>         0.0508
@<TRIPOS>BOND
     1    1    2 1
     2    1   34 1
     3    1   35 1
     4    1   36 1
     5    2    3 1
     6    2   37 1
     7    2   38 1
     8    3   12 1
     9    3    4 2
    10    4    5 1
    11    4   30 1
    12    5    6 1
    13    5    7 1
    14    5   21 1
    15    7   11 1
    16    7    8 1
    17    8    9 2
    18    8   13 1
    19    9   10 1
    20    9   39 1
    21   10   11 1
    22   11   12 2
    23   13   14 2
    24   13   40 1
    25   14   15 1
    26   14   16 1
    27   16   17 1
    28   16   41 1
    29   17   18 1
    30   17   42 1
    31   17   43 1
    32   18   19 1
    33   18   20 1
    34   18   44 1
    35   19   45 1
    36   19   46 1
    37   19   47 1
    38   20   48 1
    39   20   49 1
    40   20   50 1
    41   21   26 ar
    42   21   22 ar
    43   22   23 ar
    44   22   51 1
    45   23   24 ar
    46   23   52 1
    47   24   25 ar
    48   24   27 1
    49   25   26 ar
    50   25   53 1
    51   26   54 1
    52   27   28 1
    53   27   29 1
    54   27   55 1
    55   28   56 1
    56   28   57 1
    57   28   58 1
    58   29   59 1
    59   29   60 1
    60   29   61 1
    61   30   31 2
    62   30   32 1
    63   32   33 1
    64   33   62 1
    65   33   63 1
    66   33   64 1
@<TRIPOS>MOLECULE
ZINC40093658
   67    69     0     0     0
SMALL
USER_CHARGES

@<TRIPOS>ATOM
      1 C1         -0.2485    1.6235    0.3220 C.3       1 <0>        -0.1501
      2 C2         -0.2293    0.0941    0.2828 C.3       1 <0>        -0.1205
      3 C3          0.5516   -0.4371    1.4865 C.3       1 <0>        -0.1370
      4 C4          0.5709   -1.9665    1.4474 C.3       1 <0>         0.1372
      5 N1          1.3186   -2.4751    2.5999 N.am      1 <0>        -0.6114
      6 C5          2.7613   -2.7406    2.6446 C.3       1 <0>         0.2634
      7 H1          3.3174   -1.8221    2.4567 H         1 <0>         0.0668
      8 C6          3.0531   -3.2488    4.0372 C.2       1 <0>        -0.5000
      9 C7          1.8749   -3.2627    4.7028 C.2       1 <0>         0.2612
     10 C8          0.8052   -2.7760    3.8066 C.2       1 <0>         0.5106
     11 O1         -0.3654   -2.6667    4.1133 O.2       1 <0>        -0.5375
     12 O2          1.7041   -3.6554    5.9862 O.3       1 <0>        -0.6559
     13 C9          4.3609   -3.6498    4.5657 C.2       1 <0>         0.5070
     14 O3          4.5617   -4.8088    4.8778 O.2       1 <0>        -0.4777
     15 C10         5.4337   -2.6476    4.7191 C.ar      1 <0>        -0.1692
     16 C11         5.1717   -1.2964    4.4713 C.ar      1 <0>        -0.0279
     17 C12         6.1749   -0.3652    4.6155 C.ar      1 <0>        -0.2245
     18 C13         7.4477   -0.7663    5.0066 C.ar      1 <0>         0.1429
     19 C14         7.7125   -2.1086    5.2540 C.ar      1 <0>        -0.1367
     20 C15         6.7130   -3.0458    5.1182 C.ar      1 <0>        -0.0363
     21 C16         9.0938   -2.5375    5.6772 C.3       1 <0>        -0.0989
     22 O4          8.4342    0.1548    5.1468 O.3       1 <0>        -0.3072
     23 C17         8.1342    1.4929    4.7449 C.3       1 <0>         0.0717
     24 C18         7.6480    2.2922    5.9556 C.3       1 <0>        -0.1757
     25 C19         9.3931    2.1482    4.1733 C.3       1 <0>        -0.1496
     26 C20         3.1277   -3.7858    1.6228 C.ar      1 <0>        -0.0726
     27 C21         2.3533   -4.9230    1.4890 C.ar      1 <0>        -0.0853
     28 C22         2.6894   -5.8818    0.5517 C.ar      1 <0>        -0.1190
     29 C23         3.7997   -5.7032   -0.2522 C.ar      1 <0>        -0.0879
     30 C24         4.5737   -4.5656   -0.1190 C.ar      1 <0>        -0.1171
     31 C25         4.2351   -3.6048    0.8154 C.ar      1 <0>        -0.1135
     32 C26         4.1667   -6.7489   -1.2734 C.3       1 <0>        -0.0541
     33 C27         4.1501   -6.1254   -2.6705 C.3       1 <0>        -0.1413
     34 C28         5.5668   -7.2871   -0.9717 C.3       1 <0>        -0.1432
     35 H2          0.7735    2.0007    0.2872 H         1 <0>         0.0525
     36 H3         -0.8048    2.0019   -0.5356 H         1 <0>         0.0510
     37 H4         -0.7279    1.9574    1.2422 H         1 <0>         0.0535
     38 H5         -1.2513   -0.2831    0.3175 H         1 <0>         0.0618
     39 H6          0.2502   -0.2398   -0.6374 H         1 <0>         0.0608
     40 H7          1.5737   -0.0598    1.4518 H         1 <0>         0.0636
     41 H8          0.0722   -0.1032    2.4067 H         1 <0>         0.0663
     42 H9         -0.4512   -2.3437    1.4821 H         1 <0>         0.0752
     43 H10         1.0503   -2.3003    0.5272 H         1 <0>         0.0731
     44 H11         4.1837   -0.9842    4.1668 H         1 <0>         0.1351
     45 H12         5.9734    0.6785    4.4242 H         1 <0>         0.1288
     46 H13         6.9183   -4.0877    5.3149 H         1 <0>         0.1347
     47 H14         9.1654   -2.5109    6.7645 H         1 <0>         0.0639
     48 H15         9.2830   -3.5517    5.3253 H         1 <0>         0.0628
     49 H16         9.8320   -1.8603    5.2477 H         1 <0>         0.0658
     50 H17         7.3548    1.4774    3.9830 H         1 <0>         0.0779
     51 H18         8.4274    2.3077    6.7174 H         1 <0>         0.0653
     52 H19         7.4192    3.3128    5.6490 H         1 <0>         0.0696
     53 H20         6.7511    1.8253    6.3628 H         1 <0>         0.0642
     54 H21         9.7394    1.5788    3.3108 H         1 <0>         0.0632
     55 H22         9.1642    3.1689    3.8668 H         1 <0>         0.0737
     56 H23        10.1725    2.1637    4.9352 H         1 <0>         0.0650
     57 H24         1.4858   -5.0625    2.1170 H         1 <0>         0.1156
     58 H25         2.0847   -6.7706    0.4476 H         1 <0>         0.1144
     59 H26         5.4413   -4.4262   -0.7468 H         1 <0>         0.1141
     60 H27         4.8376   -2.7142    0.9169 H         1 <0>         0.1164
     61 H28         3.4466   -7.5661   -1.2316 H         1 <0>         0.0732
     62 H29         4.4155   -6.8818   -3.4091 H         1 <0>         0.0530
     63 H30         3.1526   -5.7420   -2.8854 H         1 <0>         0.0542
     64 H31         4.8702   -5.3083   -2.7123 H         1 <0>         0.0554
     65 H32         5.5787   -7.7313    0.0236 H         1 <0>         0.0568
     66 H33         5.8323   -8.0435   -1.7103 H         1 <0>         0.0530
     67 H34         6.2870   -6.4700   -1.0135 H         1 <0>         0.0556
@<TRIPOS>BOND
     1    1    2 1
     2    1   35 1
     3    1   36 1
     4    1   37 1
     5    2    3 1
     6    2   38 1
     7    2   39 1
     8    3    4 1
     9    3   40 1
    10    3   41 1
    11    4    5 1
    12    4   42 1
    13    4   43 1
    14    5   10 am
    15    5    6 1
    16    6    7 1
    17    6    8 1
    18    6   26 1
    19    8    9 2
    20    8   13 1
    21    9   10 1
    22    9   12 1
    23   10   11 2
    24   13   14 2
    25   13   15 1
    26   15   20 ar
    27   15   16 ar
    28   16   17 ar
    29   16   44 1
    30   17   18 ar
    31   17   45 1
    32   18   19 ar
    33   18   22 1
    34   19   20 ar
    35   19   21 1
    36   20   46 1
    37   21   47 1
    38   21   48 1
    39   21   49 1
    40   22   23 1
    41   23   24 1
    42   23   25 1
    43   23   50 1
    44   24   51 1
    45   24   52 1
    46   24   53 1
    47   25   54 1
    48   25   55 1
    49   25   56 1
    50   26   31 ar
    51   26   27 ar
    52   27   28 ar
    53   27   57 1
    54   28   29 ar
    55   28   58 1
    56   29   30 ar
    57   29   32 1
    58   30   31 ar
    59   30   59 1
    60   31   60 1
    61   32   33 1
    62   32   34 1
    63   32   61 1
    64   33   62 1
    65   33   63 1
    66   33   64 1
    67   34   65 1
    68   34   66 1
    69   34   67 1
@<TRIPOS>MOLECULE
ZINC59364532
   51    53     0     0     0
SMALL
USER_CHARGES

@<TRIPOS>ATOM
      1 C1          0.0419    1.0934   -1.3744 C.3       1 <0>        -0.1540
      2 C2          0.0264   -0.3205   -0.7899 C.3       1 <0>         0.0526
      3 O1         -1.3219   -0.7101   -0.5211 O.3       1 <0>        -0.3021
      4 C3         -1.5128   -1.9467    0.0044 C.ar      1 <0>         0.1541
      5 C4         -0.4277   -2.7683    0.2625 C.ar      1 <0>        -0.2025
      6 C5         -0.6224   -4.0273    0.7975 C.ar      1 <0>        -0.0679
      7 C6         -1.9023   -4.4808    1.0804 C.ar      1 <0>        -0.0668
      8 C7         -2.9952   -3.6793    0.8306 C.ar      1 <0>        -0.0627
      9 C8         -2.8122   -2.3978    0.2946 C.ar      1 <0>        -0.0746
     10 C9         -3.9681   -1.5358    0.0323 C.2       1 <0>        -0.0079
     11 C10        -5.2157   -2.0782   -0.0617 C.2       1 <0>        -0.1228
     12 C11        -6.4579   -1.4073   -0.1659 C.2       1 <0>         0.3490
     13 O2         -6.5132   -0.0562   -0.1826 O.3       1 <0>        -0.5809
     14 C12        -7.6035   -2.1554   -0.2499 C.2       1 <0>        -0.4222
     15 C13        -7.4412   -3.6176   -0.2242 C.2       1 <0>         0.3042
     16 S1         -5.6714   -3.8021   -0.0904 S.3       1 <0>        -0.1151
     17 N1         -8.3689   -4.5551   -0.2893 N.2       1 <0>        -0.4927
     18 C14        -8.0123   -5.8723   -0.2495 C.ar      1 <0>         0.1257
     19 C15        -6.9354   -6.3321   -1.0135 C.ar      1 <0>        -0.1628
     20 C16        -6.5813   -7.6640   -0.9680 C.ar      1 <0>        -0.0957
     21 C17        -7.2891   -8.5450   -0.1691 C.ar      1 <0>        -0.1232
     22 C18        -8.3565   -8.0975    0.5898 C.ar      1 <0>        -0.1043
     23 C19        -8.7185   -6.7672    0.5600 C.ar      1 <0>        -0.1213
     24 C20        -6.8958   -9.9991   -0.1255 C.3       1 <0>        -0.1051
     25 C21        -8.9222   -1.5309   -0.3593 C.2       1 <0>         0.5373
     26 O3         -9.0215   -0.3185   -0.3779 O.2       1 <0>        -0.5315
     27 O4        -10.0280   -2.2995   -0.4395 O.3       1 <0>        -0.3409
     28 C22       -11.2823   -1.6228   -0.5443 C.3       1 <0>         0.0631
     29 C23       -12.4118   -2.6518   -0.6240 C.3       1 <0>        -0.1437
     30 Cl1        -2.1286   -6.0657    1.7518 Cl        1 <0>        -0.0697
     31 H1          1.0704    1.3906   -1.5795 H         1 <0>         0.0771
     32 H2         -0.5326    1.1100   -2.3006 H         1 <0>         0.0687
     33 H3         -0.4010    1.7869   -0.6597 H         1 <0>         0.0687
     34 H4          0.4694   -1.0140   -1.5047 H         1 <0>         0.0631
     35 H5          0.6009   -0.3370    0.1362 H         1 <0>         0.0631
     36 H6          0.5726   -2.4241    0.0449 H         1 <0>         0.1375
     37 H7          0.2279   -4.6629    0.9964 H         1 <0>         0.1347
     38 H8         -3.9902   -4.0366    1.0517 H         1 <0>         0.1612
     39 H9         -3.8319   -0.4711   -0.0866 H         1 <0>         0.1552
     40 H10        -6.3827   -5.6459   -1.6380 H         1 <0>         0.1249
     41 H11        -5.7497   -8.0206   -1.5577 H         1 <0>         0.1153
     42 H12        -8.9045   -8.7910    1.2103 H         1 <0>         0.1170
     43 H13        -9.5486   -6.4185    1.1564 H         1 <0>         0.1225
     44 H14        -6.1629  -10.1537    0.6664 H         1 <0>         0.0628
     45 H15        -7.7778  -10.6083    0.0718 H         1 <0>         0.0597
     46 H16        -6.4621  -10.2870   -1.0832 H         1 <0>         0.0598
     47 H17       -11.4281   -0.9903    0.3314 H         1 <0>         0.0523
     48 H18       -11.2884   -1.0061   -1.4430 H         1 <0>         0.0521
     49 H19       -13.3685   -2.1356   -0.7039 H         1 <0>         0.0656
     50 H20       -12.2659   -3.2842   -1.4997 H         1 <0>         0.0615
     51 H21       -12.4056   -3.2685    0.2747 H         1 <0>         0.0616
@<TRIPOS>BOND
     1    1    2 1
     2    1   31 1
     3    1   32 1
     4    1   33 1
     5    2    3 1
     6    2   34 1
     7    2   35 1
     8    3    4 1
     9    4    9 ar
    10    4    5 ar
    11    5    6 ar
    12    5   36 1
    13    6    7 ar
    14    6   37 1
    15    7    8 ar
    16    7   30 1
    17    8    9 ar
    18    8   38 1
    19    9   10 1
    20   10   11 2
    21   10   39 1
    22   11   16 1
    23   11   12 1
    24   12   13 1
    25   12   14 2
    26   14   15 1
    27   14   25 1
    28   15   17 2
    29   15   16 1
    30   17   18 1
    31   18   23 ar
    32   18   19 ar
    33   19   20 ar
    34   19   40 1
    35   20   21 ar
    36   20   41 1
    37   21   22 ar
    38   21   24 1
    39   22   23 ar
    40   22   42 1
    41   23   43 1
    42   24   44 1
    43   24   45 1
    44   24   46 1
    45   25   26 2
    46   25   27 1
    47   27   28 1
    48   28   29 1
    49   28   47 1
    50   28   48 1
    51   29   49 1
    52   29   50 1
    53   29   51 1
@<TRIPOS>MOLECULE
ZINC13266660
   61    63     0     0     0
SMALL
USER_CHARGES
2-[2-(butyl-sec-butyl-amino)-2-oxo-ethyl]sulfanyl-3-(4-fluorophenyl)-4-oxo-quinazoline-7-carboxylic acid
@<TRIPOS>ATOM
      1 C1          2.2382    3.2859    9.5076 C.3       1 <0>        -0.1517
      2 C2          2.0282    3.4732    8.0037 C.3       1 <0>        -0.1212
      3 C3          1.8498    2.1064    7.3396 C.3       1 <0>        -0.1418
      4 C4          1.6398    2.2936    5.8357 C.3       1 <0>         0.1157
      5 N1          1.4690    0.9849    5.1998 N.am      1 <0>        -0.5966
      6 C5          0.1305    0.4046    5.0661 C.3       1 <0>         0.1241
      7 H1          0.2023   -0.5643    4.5720 H         1 <0>         0.1006
      8 C6         -0.4885    0.2249    6.4537 C.3       1 <0>        -0.1665
      9 C7         -0.7492    1.3383    4.2323 C.3       1 <0>        -0.1343
     10 C8         -0.1990    1.4196    2.8070 C.3       1 <0>        -0.1558
     11 C9          2.5432    0.3148    4.7378 C.2       1 <0>         0.5358
     12 O1          3.6513    0.7952    4.8486 O.2       1 <0>        -0.5257
     13 C10         2.3675   -1.0314    4.0837 C.3       1 <0>        -0.1499
     14 S1          3.9826   -1.6700    3.5741 S.3       1 <0>         0.0672
     15 C11         3.4936   -3.2056    2.8618 C.2       1 <0>         0.3388
     16 N2          2.2211   -3.5170    2.8611 N.2       1 <0>        -0.5085
     17 C12         1.7759   -4.6784    2.3263 C.ar      1 <0>         0.1374
     18 C13         0.4171   -5.0057    2.3218 C.ar      1 <0>        -0.0719
     19 C14         0.0070   -6.2110    1.7659 C.ar      1 <0>        -0.0650
     20 C15         0.9438   -7.0939    1.2129 C.ar      1 <0>        -0.0858
     21 C16         2.2736   -6.7851    1.2120 C.ar      1 <0>        -0.0614
     22 C17         2.7078   -5.5805    1.7648 C.ar      1 <0>        -0.1936
     23 C18         4.1310   -5.2083    1.7838 C.2       1 <0>         0.5590
     24 O2          4.9812   -5.9427    1.3154 O.2       1 <0>        -0.5025
     25 N3          4.4605   -4.0199    2.3402 N.am      1 <0>        -0.4905
     26 C19         5.8030   -3.6201    2.3819 C.ar      1 <0>         0.0921
     27 C20         6.3435   -2.8889    1.3326 C.ar      1 <0>        -0.0593
     28 C21         7.6652   -2.4909    1.3782 C.ar      1 <0>        -0.1440
     29 C22         8.4544   -2.8305    2.4643 C.ar      1 <0>         0.1170
     30 C23         7.9187   -3.5647    3.5092 C.ar      1 <0>        -0.1440
     31 C24         6.5959   -3.9596    3.4700 C.ar      1 <0>        -0.0592
     32 F1          9.7485   -2.4447    2.5047 F         1 <0>        -0.1344
     33 C25        -1.4295   -6.5646    1.7573 C.2       1 <0>         0.4878
     34 O3         -2.2454   -5.8024    2.2351 O.co2     1 <0>        -0.6211
     35 H2          1.3705    2.7843    9.9360 H         1 <0>         0.0532
     36 H3          3.1285    2.6804    9.6775 H         1 <0>         0.0539
     37 H4          2.3653    4.2596    9.9807 H         1 <0>         0.0532
     38 H5          2.8959    3.9748    7.5753 H         1 <0>         0.0626
     39 H6          1.1379    4.0786    7.8338 H         1 <0>         0.0610
     40 H7          0.9821    1.6048    7.7680 H         1 <0>         0.0713
     41 H8          2.7401    1.5009    7.5095 H         1 <0>         0.0665
     42 H9          2.5075    2.7952    5.4073 H         1 <0>         0.0837
     43 H10         0.7495    2.8991    5.6658 H         1 <0>         0.0793
     44 H11        -1.4843   -0.2069    6.3542 H         1 <0>         0.0728
     45 H12         0.1383   -0.4403    7.0477 H         1 <0>         0.0616
     46 H13        -0.5602    1.1938    6.9478 H         1 <0>         0.0642
     47 H14        -0.7492    2.3326    4.6790 H         1 <0>         0.0672
     48 H15        -1.7679    0.9513    4.2070 H         1 <0>         0.0799
     49 H16        -0.1990    0.4253    2.3603 H         1 <0>         0.0588
     50 H17         0.8196    1.8065    2.8322 H         1 <0>         0.0529
     51 H18        -0.8258    2.0848    2.2129 H         1 <0>         0.0570
     52 H19         1.9106   -1.7226    4.7919 H         1 <0>         0.1298
     53 H20         1.7248   -0.9294    3.2093 H         1 <0>         0.1299
     54 H21        -0.3079   -4.3272    2.7465 H         1 <0>         0.1450
     55 H22         0.6110   -8.0275    0.7840 H         1 <0>         0.1441
     56 H23         2.9882   -7.4724    0.7837 H         1 <0>         0.1345
     57 H24         5.7296   -2.6280    0.4832 H         1 <0>         0.1390
     58 H25         8.0848   -1.9184    0.5643 H         1 <0>         0.1457
     59 H26         8.5359   -3.8288    4.3552 H         1 <0>         0.1457
     60 H27         6.1786   -4.5324    4.2849 H         1 <0>         0.1390
     61 O4         -1.8325   -7.7318    1.2196 O.co2     1 <0>        -0.7427
@<TRIPOS>BOND
     1    1    2 1
     2    1   35 1
     3    1   36 1
     4    1   37 1
     5    2    3 1
     6    2   38 1
     7    2   39 1
     8    3    4 1
     9    3   40 1
    10    3   41 1
    11    4    5 1
    12    4   42 1
    13    4   43 1
    14    5    6 1
    15    5   11 am
    16    6    7 1
    17    6    8 1
    18    6    9 1
    19    8   44 1
    20    8   45 1
    21    8   46 1
    22    9   10 1
    23    9   47 1
    24    9   48 1
    25   10   49 1
    26   10   50 1
    27   10   51 1
    28   11   12 2
    29   11   13 1
    30   13   14 1
    31   13   52 1
    32   13   53 1
    33   14   15 1
    34   15   25 1
    35   15   16 2
    36   16   17 1
    37   17   22 ar
    38   17   18 ar
    39   18   19 ar
    40   18   54 1
    41   19   20 ar
    42   19   33 1
    43   20   21 ar
    44   20   55 1
    45   21   22 ar
    46   21   56 1
    47   22   23 1
    48   23   24 2
    49   23   25 am
    50   25   26 1
    51   26   31 ar
    52   26   27 ar
    53   27   28 ar
    54   27   57 1
    55   28   29 ar
    56   28   58 1
    57   29   30 ar
    58   29   32 1
    59   30   31 ar
    60   30   59 1
    61   31   60 1
    62   33   34 2
    63   33   61 1
@<TRIPOS>MOLECULE
ZINC35696383
   59    61     0     0     0
SMALL
USER_CHARGES

@<TRIPOS>ATOM
      1 C1          0.1371   -1.7696   -0.4402 C.3       1 <0>        -0.1696
      2 C2         -0.0474   -0.3451    0.0869 C.3       1 <0>         0.1296
      3 N1          0.6764   -0.1948    1.3516 N.pl3     1 <0>        -0.6323
      4 C3          2.0724    0.2495    1.3484 C.3       1 <0>         0.1302
      5 C4          2.1209    1.7784    1.3205 C.3       1 <0>        -0.1623
      6 C5          0.0411   -0.4728    2.5502 C.2       1 <0>         0.5036
      7 O1          0.6817   -0.2516    3.7239 O.3       1 <0>        -0.7011
      8 C6         -1.2134   -0.9629    2.5496 C.2       1 <0>        -0.4652
      9 C7         -1.8625   -1.3226    3.8184 C.2       1 <0>         0.2287
     10 C8         -1.2674   -1.0700    5.0050 C.2       1 <0>        -0.3039
     11 S1         -2.4694   -1.6969    6.1612 S.3       1 <0>         0.1408
     12 C9         -3.6261   -2.2278    5.0670 C.2       1 <0>         0.3203
     13 N2         -4.7957   -2.8065    5.2461 N.2       1 <0>        -0.5954
     14 C10        -5.6127   -3.1744    4.2727 C.2       1 <0>         0.3027
     15 C11        -5.2682   -2.9621    2.9515 C.2       1 <0>        -0.3939
     16 C12        -3.9378   -2.3013    2.6672 C.3       1 <0>         0.2625
     17 H1         -4.1292   -1.3955    2.0919 H         1 <0>         0.0732
     18 N3         -3.1045   -1.9254    3.8403 N.pl3     1 <0>        -0.5136
     19 C13        -3.1321   -3.2345    1.8006 C.ar      1 <0>        -0.0561
     20 C14        -2.9700   -2.9611    0.4550 C.ar      1 <0>        -0.0620
     21 C15        -2.2312   -3.8165   -0.3405 C.ar      1 <0>        -0.0933
     22 C16        -1.6542   -4.9462    0.2088 C.ar      1 <0>        -0.1133
     23 C17        -1.8161   -5.2203    1.5550 C.ar      1 <0>        -0.0309
     24 C18        -2.5507   -4.3603    2.3521 C.ar      1 <0>        -0.0837
     25 Cl1        -1.0918   -6.6389    2.2455 Cl        1 <0>        -0.0866
     26 C19        -6.1221   -3.3464    1.9106 C.2       1 <0>         0.5372
     27 O2         -7.2222   -3.8062    2.1631 O.2       1 <0>        -0.5504
     28 O3         -5.7264   -3.2075    0.6259 O.3       1 <0>        -0.3458
     29 C20        -6.6932   -3.4974   -0.3857 C.3       1 <0>         0.0710
     30 C21        -6.0341   -3.4032   -1.7632 C.3       1 <0>         0.0642
     31 O4         -5.0546   -4.4355   -1.8942 O.3       1 <0>        -0.3738
     32 C22        -4.3122   -4.3809   -3.1140 C.3       1 <0>         0.0317
     33 C23        -6.9278   -3.8299    4.6071 C.3       1 <0>        -0.0923
     34 H2         -0.4015   -1.8814   -1.3813 H         1 <0>         0.0495
     35 H3          1.1974   -1.9621   -0.6034 H         1 <0>         0.0448
     36 H4         -0.2533   -2.4800    0.2885 H         1 <0>         0.0695
     37 H5          0.3429    0.3653   -0.6418 H         1 <0>         0.0526
     38 H6         -1.1078   -0.1526    0.2500 H         1 <0>         0.0686
     39 H7          2.5714   -0.1136    2.2469 H         1 <0>         0.0771
     40 H8          2.5776   -0.1462    0.4673 H         1 <0>         0.0479
     41 H9          1.5471    2.1447    0.4692 H         1 <0>         0.0437
     42 H10         1.6942    2.1724    2.2428 H         1 <0>         0.0585
     43 H11         3.1561    2.1075    1.2295 H         1 <0>         0.0490
     44 H12        -1.7424   -1.0916    1.6169 H         1 <0>         0.0947
     45 H13        -0.3112   -0.6079    5.2016 H         1 <0>         0.2374
     46 H14        -3.4212   -2.0789    0.0252 H         1 <0>         0.1173
     47 H15        -2.1049   -3.6024   -1.3915 H         1 <0>         0.1201
     48 H16        -1.0775   -5.6150   -0.4130 H         1 <0>         0.1225
     49 H17        -2.6737   -4.5714    3.4041 H         1 <0>         0.1126
     50 H18        -7.0832   -4.5045   -0.2376 H         1 <0>         0.0705
     51 H19        -7.5104   -2.7787   -0.3240 H         1 <0>         0.0733
     52 H20        -6.7921   -3.5212   -2.5375 H         1 <0>         0.0637
     53 H21        -5.5536   -2.4307   -1.8703 H         1 <0>         0.0581
     54 H22        -4.9813   -4.5630   -3.9550 H         1 <0>         0.0360
     55 H23        -3.8570   -3.3960   -3.2185 H         1 <0>         0.0412
     56 H24        -3.5321   -5.1420   -3.0989 H         1 <0>         0.0844
     57 H25        -7.0269   -3.9145    5.6893 H         1 <0>         0.0640
     58 H26        -7.7453   -3.2259    4.2135 H         1 <0>         0.0884
     59 H27        -6.9625   -4.8236    4.1603 H         1 <0>         0.0843
@<TRIPOS>BOND
     1    1    2 1
     2    1   34 1
     3    1   35 1
     4    1   36 1
     5    2    3 1
     6    2   37 1
     7    2   38 1
     8    3    4 1
     9    3    6 1
    10    4    5 1
    11    4   39 1
    12    4   40 1
    13    5   41 1
    14    5   42 1
    15    5   43 1
    16    6    7 1
    17    6    8 2
    18    8    9 1
    19    8   44 1
    20    9   18 1
    21    9   10 2
    22   10   11 1
    23   10   45 1
    24   11   12 1
    25   12   18 1
    26   12   13 2
    27   13   14 1
    28   14   15 2
    29   14   33 1
    30   15   16 1
    31   15   26 1
    32   16   17 1
    33   16   18 1
    34   16   19 1
    35   19   24 ar
    36   19   20 ar
    37   20   21 ar
    38   20   46 1
    39   21   22 ar
    40   21   47 1
    41   22   23 ar
    42   22   48 1
    43   23   24 ar
    44   23   25 1
    45   24   49 1
    46   26   27 2
    47   26   28 1
    48   28   29 1
    49   29   30 1
    50   29   50 1
    51   29   51 1
    52   30   31 1
    53   30   52 1
    54   30   53 1
    55   31   32 1
    56   32   54 1
    57   32   55 1
    58   32   56 1
    59   33   57 1
    60   33   58 1
    61   33   59 1
@<TRIPOS>MOLECULE
ZINC26806979
   53    55     0     0     0
SMALL
USER_CHARGES

@<TRIPOS>ATOM
      1 C1         -0.0187    1.5258    0.0104 C.3       1 <0>        -0.1495
      2 C2          0.0021   -0.0041    0.0020 C.3       1 <0>        -0.1231
      3 C3          0.7182   -0.4975   -1.2568 C.3       1 <0>         0.0592
      4 O1          0.7376   -1.9263   -1.2646 O.3       1 <0>        -0.3215
      5 C4          1.3412   -2.5293   -2.3222 C.ar      1 <0>         0.1039
      6 C5          1.9080   -1.7578   -3.3281 C.ar      1 <0>        -0.2067
      7 C6          2.5216   -2.3657   -4.4025 C.ar      1 <0>        -0.0701
      8 C7          2.5729   -3.7587   -4.4783 C.ar      1 <0>         0.0181
      9 C8          2.0019   -4.5307   -3.4648 C.ar      1 <0>        -0.0682
     10 C9          1.3947   -3.9151   -2.3912 C.ar      1 <0>        -0.1515
     11 C10         3.2295   -4.4146   -5.6287 C.2       1 <0>         0.1055
     12 N1          3.3549   -5.7690   -5.8357 N.2       1 <0>        -0.5480
     13 C11         4.0262   -5.9003   -7.0184 C.2       1 <0>         0.0684
     14 N2          4.2713   -4.6887   -7.4635 N.2       1 <0>        -0.3634
     15 N3          3.7981   -3.8149   -6.6487 N.2       1 <0>        -0.3436
     16 S1          4.4793   -7.4128   -7.8006 S.3       1 <0>        -0.0397
     17 C12         5.3329   -6.8865   -9.3123 C.3       1 <0>        -0.0610
     18 C13         5.7791   -8.1004  -10.0858 C.ar      1 <0>        -0.0944
     19 C14         7.0236   -8.6532   -9.8451 C.ar      1 <0>        -0.0090
     20 C15         7.4349   -9.7658  -10.5527 C.ar      1 <0>        -0.2130
     21 C16         6.5981  -10.3291  -11.5054 C.ar      1 <0>         0.1951
     22 C17         5.3500   -9.7730  -11.7446 C.ar      1 <0>        -0.0852
     23 C18         4.9413   -8.6629  -11.0307 C.ar      1 <0>        -0.0033
     24 N4          4.4551  -10.3711  -12.7604 N.pl3     1 <0>         0.0444
     25 O2          3.3674   -9.8860  -12.9685 O.2       1 <0>        -0.1769
     26 O3          4.8117  -11.3447  -13.3821 O.3       1 <0>        -0.1427
     27 O4          7.0006  -11.4236  -12.2032 O.3       1 <0>        -0.2824
     28 C19         8.2983  -11.9421  -11.9047 C.3       1 <0>         0.0503
     29 C20         8.5736  -13.1643  -12.7830 C.3       1 <0>        -0.1227
     30 C21         9.9630  -13.7195  -12.4634 C.3       1 <0>        -0.1498
     31 H1          1.0039    1.9031    0.0027 H         1 <0>         0.0570
     32 H2         -0.5459    1.8868   -0.8726 H         1 <0>         0.0571
     33 H3         -0.5289    1.8773    0.9072 H         1 <0>         0.0617
     34 H4          0.5293   -0.3651    0.8851 H         1 <0>         0.0714
     35 H5         -1.0205   -0.3814    0.0098 H         1 <0>         0.0716
     36 H6          0.1910   -0.1364   -2.1398 H         1 <0>         0.0590
     37 H7          1.7408   -0.1202   -1.2645 H         1 <0>         0.0589
     38 H8          1.8676   -0.6802   -3.2689 H         1 <0>         0.1213
     39 H9          2.9619   -1.7650   -5.1846 H         1 <0>         0.1292
     40 H10         2.0391   -5.6086   -3.5200 H         1 <0>         0.1333
     41 H11         0.9563   -4.5116   -1.6047 H         1 <0>         0.1244
     42 H12         4.6537   -6.2943   -9.9256 H         1 <0>         0.0993
     43 H13         6.2021   -6.2844   -9.0478 H         1 <0>         0.1003
     44 H14         7.6746   -8.2143   -9.1035 H         1 <0>         0.1496
     45 H15         8.4073  -10.1967  -10.3649 H         1 <0>         0.1513
     46 H16         3.9682   -8.2318  -11.2139 H         1 <0>         0.1625
     47 H17         9.0494  -11.1770  -12.1011 H         1 <0>         0.0679
     48 H18         8.3410  -12.2322  -10.8548 H         1 <0>         0.0688
     49 H19         7.8226  -13.9294  -12.5866 H         1 <0>         0.0777
     50 H20         8.5309  -12.8743  -13.8328 H         1 <0>         0.0772
     51 H21        10.1591  -14.5902  -13.0891 H         1 <0>         0.0658
     52 H22        10.7141  -12.9544  -12.6597 H         1 <0>         0.0573
     53 H23        10.0057  -14.0095  -11.4135 H         1 <0>         0.0579
@<TRIPOS>BOND
     1    1    2 1
     2    1   31 1
     3    1   32 1
     4    1   33 1
     5    2    3 1
     6    2   34 1
     7    2   35 1
     8    3    4 1
     9    3   36 1
    10    3   37 1
    11    4    5 1
    12    5   10 ar
    13    5    6 ar
    14    6    7 ar
    15    6   38 1
    16    7    8 ar
    17    7   39 1
    18    8    9 ar
    19    8   11 1
    20    9   10 ar
    21    9   40 1
    22   10   41 1
    23   11   12 1
    24   11   15 2
    25   12   13 1
    26   13   16 1
    27   13   14 2
    28   14   15 1
    29   16   17 1
    30   17   18 1
    31   17   42 1
    32   17   43 1
    33   18   23 ar
    34   18   19 ar
    35   19   20 ar
    36   19   44 1
    37   20   21 ar
    38   20   45 1
    39   21   22 ar
    40   21   27 1
    41   22   23 ar
    42   22   24 1
    43   23   46 1
    44   24   25 2
    45   24   26 1
    46   27   28 1
    47   28   29 1
    48   28   47 1
    49   28   48 1
    50   29   30 1
    51   29   49 1
    52   29   50 1
    53   30   51 1
    54   30   52 1
    55   30   53 1
@<TRIPOS>MOLECULE
ZINC40091739
   69    71     0     0     0
SMALL
USER_CHARGES

@<TRIPOS>ATOM
      1 C1         -1.1502    1.7461   -0.3330 C.3       1 <0>        -0.1494
      2 C2         -1.3758    0.2518   -0.5720 C.3       1 <0>        -0.1192
      3 C3         -0.2855   -0.2866   -1.5005 C.3       1 <0>        -0.1446
      4 C4         -0.5111   -1.7809   -1.7394 C.3       1 <0>         0.1388
      5 N1          0.5330   -2.2964   -2.6284 N.am      1 <0>        -0.6119
      6 C5          0.4741   -2.3423   -4.0942 C.3       1 <0>         0.2663
      7 H1         -0.3629   -2.9617   -4.4164 H         1 <0>         0.0673
      8 C6          1.7785   -2.9539   -4.5492 C.2       1 <0>        -0.5013
      9 C7          2.4946   -3.2221   -3.4327 C.2       1 <0>         0.2622
     10 C8          1.7179   -2.8062   -2.2461 C.2       1 <0>         0.5109
     11 O1          2.0928   -2.9118   -1.0952 O.2       1 <0>        -0.5363
     12 O2          3.7277   -3.7785   -3.4070 O.3       1 <0>        -0.6549
     13 C9          2.1894   -3.2079   -5.9337 C.2       1 <0>         0.5070
     14 O3          3.1308   -2.6014   -6.4101 O.2       1 <0>        -0.4763
     15 C10         1.4612   -4.1994   -6.7496 C.ar      1 <0>        -0.1685
     16 C11         0.4093   -4.9313   -6.1898 C.ar      1 <0>        -0.0302
     17 C12        -0.2671   -5.8549   -6.9541 C.ar      1 <0>        -0.2216
     18 C13         0.0946   -6.0609   -8.2810 C.ar      1 <0>         0.1407
     19 C14         1.1398   -5.3354   -8.8414 C.ar      1 <0>        -0.1349
     20 C15         1.8176   -4.4052   -8.0857 C.ar      1 <0>        -0.0369
     21 C16         1.5277   -5.5632  -10.2797 C.3       1 <0>        -0.0996
     22 O4         -0.5742   -6.9730   -9.0308 O.3       1 <0>        -0.3134
     23 C17        -1.5619   -7.7617   -8.3643 C.3       1 <0>         0.0568
     24 C18        -2.1190   -8.8068   -9.3331 C.3       1 <0>        -0.1228
     25 C19        -3.1766   -9.6513   -8.6195 C.3       1 <0>        -0.1500
     26 C20         0.3315   -0.9491   -4.6509 C.ar      1 <0>        -0.0676
     27 C21         1.1690    0.0588   -4.2103 C.ar      1 <0>        -0.0756
     28 C22         1.0422    1.3384   -4.7178 C.ar      1 <0>        -0.1738
     29 C23         0.0744    1.6130   -5.6707 C.ar      1 <0>         0.0934
     30 C24        -0.7683    0.5984   -6.1145 C.ar      1 <0>         0.0925
     31 C25        -0.6327   -0.6831   -5.6052 C.ar      1 <0>        -0.1640
     32 O5         -1.7197    0.8629   -7.0496 O.3       1 <0>        -0.3099
     33 C26        -2.6162   -0.1992   -7.3814 C.3       1 <0>         0.0277
     34 O6         -0.0520    2.8713   -6.1707 O.3       1 <0>        -0.3088
     35 C27         0.8469    3.8622   -5.6686 C.3       1 <0>         0.0533
     36 C28         0.5549    5.2042   -6.3429 C.3       1 <0>        -0.1492
     37 H2         -0.1738    1.8970    0.1273 H         1 <0>         0.0529
     38 H3         -1.1891    2.2761   -1.2847 H         1 <0>         0.0525
     39 H4         -1.9270    2.1296    0.3285 H         1 <0>         0.0502
     40 H5         -1.3370   -0.2783    0.3797 H         1 <0>         0.0602
     41 H6         -2.3522    0.1008   -1.0323 H         1 <0>         0.0593
     42 H7         -0.3243    0.2434   -2.4521 H         1 <0>         0.0741
     43 H8          0.6909   -0.1356   -1.0401 H         1 <0>         0.0646
     44 H9         -0.4722   -2.3109   -0.7877 H         1 <0>         0.0760
     45 H10        -1.4875   -1.9319   -2.1998 H         1 <0>         0.0713
     46 H11         0.1282   -4.7724   -5.1592 H         1 <0>         0.1360
     47 H12        -1.0796   -6.4205   -6.5226 H         1 <0>         0.1266
     48 H13         2.6265   -3.8388   -8.5231 H         1 <0>         0.1355
     49 H14         0.9582   -4.8902  -10.9206 H         1 <0>         0.0638
     50 H15         2.5930   -5.3686  -10.4040 H         1 <0>         0.0638
     51 H16         1.3125   -6.5957  -10.5549 H         1 <0>         0.0662
     52 H17        -1.1096   -8.2638   -7.5090 H         1 <0>         0.0626
     53 H18        -2.3709   -7.1169   -8.0210 H         1 <0>         0.0612
     54 H19        -2.5713   -8.3048  -10.1883 H         1 <0>         0.0721
     55 H20        -1.3100   -9.4517   -9.6764 H         1 <0>         0.0723
     56 H21        -3.5734  -10.3958   -9.3096 H         1 <0>         0.0626
     57 H22        -2.7242  -10.1533   -7.7642 H         1 <0>         0.0579
     58 H23        -3.9855   -9.0064   -8.2762 H         1 <0>         0.0573
     59 H24         1.9237   -0.1540   -3.4676 H         1 <0>         0.1222
     60 H25         1.6972    2.1241   -4.3714 H         1 <0>         0.1294
     61 H26        -1.2830   -1.4732   -5.9507 H         1 <0>         0.1312
     62 H27        -3.2768    0.1212   -8.1871 H         1 <0>         0.0946
     63 H28        -2.0449   -1.0694   -7.7044 H         1 <0>         0.0545
     64 H29        -3.2110   -0.4596   -6.5058 H         1 <0>         0.0515
     65 H30         0.7142    3.9605   -4.5911 H         1 <0>         0.0583
     66 H31         1.8731    3.5637   -5.8826 H         1 <0>         0.0601
     67 H32        -0.4713    5.5027   -6.1289 H         1 <0>         0.0638
     68 H33         1.2405    5.9601   -5.9598 H         1 <0>         0.0747
     69 H34         0.6876    5.1060   -7.4203 H         1 <0>         0.0648
@<TRIPOS>BOND
     1    1    2 1
     2    1   37 1
     3    1   38 1
     4    1   39 1
     5    2    3 1
     6    2   40 1
     7    2   41 1
     8    3    4 1
     9    3   42 1
    10    3   43 1
    11    4    5 1
    12    4   44 1
    13    4   45 1
    14    5   10 am
    15    5    6 1
    16    6    7 1
    17    6    8 1
    18    6   26 1
    19    8    9 2
    20    8   13 1
    21    9   10 1
    22    9   12 1
    23   10   11 2
    24   13   14 2
    25   13   15 1
    26   15   20 ar
    27   15   16 ar
    28   16   17 ar
    29   16   46 1
    30   17   18 ar
    31   17   47 1
    32   18   19 ar
    33   18   22 1
    34   19   20 ar
    35   19   21 1
    36   20   48 1
    37   21   49 1
    38   21   50 1
    39   21   51 1
    40   22   23 1
    41   23   24 1
    42   23   52 1
    43   23   53 1
    44   24   25 1
    45   24   54 1
    46   24   55 1
    47   25   56 1
    48   25   57 1
    49   25   58 1
    50   26   31 ar
    51   26   27 ar
    52   27   28 ar
    53   27   59 1
    54   28   29 ar
    55   28   60 1
    56   29   30 ar
    57   29   34 1
    58   30   31 ar
    59   30   32 1
    60   31   61 1
    61   32   33 1
    62   33   62 1
    63   33   63 1
    64   33   64 1
    65   34   35 1
    66   35   36 1
    67   35   65 1
    68   35   66 1
    69   36   67 1
    70   36   68 1
    71   36   69 1
@<TRIPOS>MOLECULE
ZINC43765307
   71    74     0     0     0
SMALL
USER_CHARGES

@<TRIPOS>ATOM
      1 C1         -0.0375    1.5015   -0.2677 C.3       1 <0>        -0.1657
      2 C2          0.0021   -0.0041    0.0020 C.3       1 <0>        -0.0913
      3 H1          0.5500   -0.1936    0.9250 H         1 <0>         0.0702
      4 C3          0.7008   -0.7122   -1.1604 C.3       1 <0>        -0.0866
      5 C4          2.1652   -0.2728   -1.2191 C.3       1 <0>        -0.1819
      6 C5          2.8534   -0.9703   -2.3640 C.2       1 <0>         0.4866
      7 O1          2.2304   -1.7468   -3.0679 O.co2     1 <0>        -0.6989
      8 O2          4.0332   -0.7581   -2.5865 O.co2     1 <0>        -0.7101
      9 C6         -1.4182   -0.5325    0.1377 C.3       1 <0>        -0.0653
     10 H2         -1.9860   -0.2454   -0.7661 H         1 <0>         0.0711
     11 C7         -1.4261   -2.0735    0.2358 C.3       1 <0>        -0.1249
     12 C8         -2.5136   -2.4071    1.2848 C.3       1 <0>        -0.1214
     13 C9         -2.4342   -1.2179    2.2795 C.3       1 <0>        -0.0646
     14 H3         -3.4236   -1.0822    2.7755 H         1 <0>         0.0711
     15 C10        -2.1609   -0.0170    1.3653 C.3       1 <0>        -0.0420
     16 C11        -1.5697    1.1718    2.0705 C.3       1 <0>         0.0917
     17 H4         -1.1960    1.8925    1.3381 H         1 <0>         0.0998
     18 C12        -0.4460    0.8216    3.0421 C.3       1 <0>        -0.1450
     19 C13        -0.9244   -0.2230    4.0439 C.3       1 <0>        -0.0558
     20 H5         -1.8145    0.1948    4.5606 H         1 <0>         0.0689
     21 C14        -1.3752   -1.4864    3.3274 C.3       1 <0>        -0.0631
     22 H6         -1.8514   -2.1389    4.0937 H         1 <0>         0.0596
     23 C15        -0.1816   -2.2630    2.7873 C.3       1 <0>        -0.1223
     24 C16         0.6829   -2.6941    3.9785 C.3       1 <0>        -0.1185
     25 C17         1.2255   -1.4514    4.6823 C.3       1 <0>        -0.0661
     26 H7          1.7471   -1.8008    5.5961 H         1 <0>         0.0718
     27 C18         0.1227   -0.5051    5.1139 C.3       1 <0>        -0.0331
     28 C19         0.6846    0.8018    5.6735 C.3       1 <0>        -0.1025
     29 C20         1.7996    1.4150    4.8483 C.3       1 <0>        -0.1467
     30 C21         2.8929    0.3959    4.5346 C.3       1 <0>         0.0931
     31 H8          3.6501    0.8614    3.9000 H         1 <0>         0.0795
     32 C22         2.2686   -0.7846    3.7914 C.3       1 <0>        -0.1179
     33 O3          3.5005   -0.0553    5.7444 O.3       1 <0>        -0.3494
     34 C23         4.5625    0.6357    6.1876 C.2       1 <0>         0.4563
     35 O4          5.1186    0.3008    7.2067 O.2       1 <0>        -0.4837
     36 C24        -0.6185   -1.1805    6.3014 C.3       1 <0>        -0.1482
     37 O5         -2.6136    1.8286    2.8085 O.3       1 <0>        -0.3545
     38 C25        -2.4966    3.1546    2.9807 C.2       1 <0>         0.4544
     39 O6         -3.3434    3.7614    3.5928 O.2       1 <0>        -0.4862
     40 C26        -3.5519    0.4546    0.8540 C.3       1 <0>        -0.1490
     41 H9          0.8154    1.7825   -0.8855 H         1 <0>         0.0681
     42 H10        -0.9617    1.7532   -0.7879 H         1 <0>         0.0541
     43 H11         0.0055    2.0413    0.6783 H         1 <0>         0.0533
     44 H12         0.6508   -1.7908   -1.0116 H         1 <0>         0.0636
     45 H13         0.2054   -0.4510   -2.0955 H         1 <0>         0.0573
     46 H14         2.2152    0.8058   -1.3679 H         1 <0>         0.0560
     47 H15         2.6606   -0.5340   -0.2840 H         1 <0>         0.0516
     48 H16        -1.7018   -2.5028   -0.7291 H         1 <0>         0.0627
     49 H17        -0.4561   -2.4432    0.5457 H         1 <0>         0.0816
     50 H18        -3.4946   -2.4565    0.8108 H         1 <0>         0.0615
     51 H19        -2.2917   -3.3506    1.7816 H         1 <0>         0.0672
     52 H20         0.4359    0.4882    2.5154 H         1 <0>         0.0967
     53 H21        -0.2044    1.7456    3.5938 H         1 <0>         0.0664
     54 H22        -0.5177   -3.1578    2.2639 H         1 <0>         0.0710
     55 H23         0.4117   -1.6414    2.1241 H         1 <0>         0.0742
     56 H24         0.0869   -3.2901    4.6651 H         1 <0>         0.0614
     57 H25         1.5170   -3.2963    3.6123 H         1 <0>         0.0626
     58 H26        -0.1389    1.5235    5.7628 H         1 <0>         0.0610
     59 H27         1.0530    0.6109    6.6915 H         1 <0>         0.0633
     60 H28         1.4260    1.8385    3.9187 H         1 <0>         0.0897
     61 H29         2.2531    2.2390    5.4216 H         1 <0>         0.0614
     62 H30         3.0544   -1.5099    3.5544 H         1 <0>         0.0747
     63 H31         1.8205   -0.4457    2.8628 H         1 <0>         0.0923
     64 H32         4.9198    1.4909    5.6333 H         1 <0>         0.1219
     65 H33        -1.0826   -2.1061    5.9608 H         1 <0>         0.0573
     66 H34         0.0943   -1.4022    7.0956 H         1 <0>         0.0534
     67 H35        -1.3869   -0.5068    6.6804 H         1 <0>         0.0512
     68 H36        -1.6455    3.6792    2.5721 H         1 <0>         0.1160
     69 H37        -4.0655   -0.3798    0.3765 H         1 <0>         0.0562
     70 H38        -4.1455    0.8135    1.6948 H         1 <0>         0.0647
     71 H39        -3.4195    1.2607    0.1323 H         1 <0>         0.0485
@<TRIPOS>BOND
     1    1    2 1
     2    1   41 1
     3    1   42 1
     4    1   43 1
     5    2    3 1
     6    2    4 1
     7    2    9 1
     8    4    5 1
     9    4   44 1
    10    4   45 1
    11    5    6 1
    12    5   46 1
    13    5   47 1
    14    6    7 2
    15    6    8 1
    16    9   10 1
    17    9   15 1
    18    9   11 1
    19   11   12 1
    20   11   48 1
    21   11   49 1
    22   12   13 1
    23   12   50 1
    24   12   51 1
    25   13   14 1
    26   13   21 1
    27   13   15 1
    28   15   16 1
    29   15   40 1
    30   16   17 1
    31   16   18 1
    32   16   37 1
    33   18   19 1
    34   18   52 1
    35   18   53 1
    36   19   20 1
    37   19   27 1
    38   19   21 1
    39   21   22 1
    40   21   23 1
    41   23   24 1
    42   23   54 1
    43   23   55 1
    44   24   25 1
    45   24   56 1
    46   24   57 1
    47   25   26 1
    48   25   32 1
    49   25   27 1
    50   27   28 1
    51   27   36 1
    52   28   29 1
    53   28   58 1
    54   28   59 1
    55   29   30 1
    56   29   60 1
    57   29   61 1
    58   30   31 1
    59   30   32 1
    60   30   33 1
    61   32   62 1
    62   32   63 1
    63   33   34 1
    64   34   35 2
    65   34   64 1
    66   36   65 1
    67   36   66 1
    68   36   67 1
    69   37   38 1
    70   38   39 2
    71   38   68 1
    72   40   69 1
    73   40   70 1
    74   40   71 1
@<TRIPOS>MOLECULE
ZINC09424403
   58    61     0     0     0
SMALL
USER_CHARGES

@<TRIPOS>ATOM
      1 C1         -1.0278    2.4920    0.0262 C.3       1 <0>        -0.1136
      2 C2         -1.0213    1.0084    0.2909 C.ar      1 <0>        -0.0826
      3 C3         -1.8355    0.4795    1.2755 C.ar      1 <0>        -0.1019
      4 C4         -1.8318   -0.8796    1.5205 C.ar      1 <0>        -0.0832
      5 C5         -1.0099   -1.7162    0.7768 C.ar      1 <0>         0.1674
      6 C6         -0.1937   -1.1835   -0.2114 C.ar      1 <0>        -0.0912
      7 C7         -0.2049    0.1773   -0.4557 C.ar      1 <0>        -0.0281
      8 Cl1         0.8104    0.8444   -1.6958 Cl        1 <0>        -0.0734
      9 N1         -1.0041   -3.0955    1.0239 N.am      1 <0>        -0.5313
     10 C8          0.0806   -3.6625    1.5935 C.2       1 <0>         0.5641
     11 O1          1.0530   -2.9951    1.8956 O.2       1 <0>        -0.5171
     12 C9          0.0496   -5.1132    1.8380 C.2       1 <0>        -0.2682
     13 C10         1.1247   -5.7754    2.4208 C.2       1 <0>         0.0702
     14 C11         1.1230   -7.1771    2.5067 C.2       1 <0>         0.0195
     15 C12         1.2220   -7.9317    3.6707 C.2       1 <0>        -0.1500
     16 C13         1.1785   -9.2713    3.2900 C.2       1 <0>        -0.2062
     17 C14         1.0571   -9.3192    1.9376 C.2       1 <0>         0.0129
     18 N2          1.0169   -8.0612    1.4523 N.pl3     1 <0>        -0.3887
     19 C15         0.8853   -7.6944    0.0401 C.3       1 <0>         0.1072
     20 C16         2.2651   -7.3618   -0.5312 C.3       1 <0>         0.0473
     21 O2          2.1248   -6.8970   -1.8752 O.3       1 <0>        -0.3035
     22 C17         3.2680   -6.6033   -2.5489 C.ar      1 <0>         0.1360
     23 C18         4.5020   -6.8592   -1.9684 C.ar      1 <0>        -0.2056
     24 C19         5.6623   -6.5603   -2.6555 C.ar      1 <0>        -0.0846
     25 C20         5.5949   -6.0065   -3.9208 C.ar      1 <0>        -0.1565
     26 C21         4.3666   -5.7502   -4.5012 C.ar      1 <0>        -0.0789
     27 C22         3.2030   -6.0527   -3.8204 C.ar      1 <0>        -0.1055
     28 C23         1.8644   -5.7788   -4.4561 C.3       1 <0>        -0.0456
     29 C24         1.3118   -4.4815   -3.9246 C.2       1 <0>        -0.1399
     30 C25         0.9828   -3.5214   -4.7529 C.2       1 <0>        -0.1952
     31 C26        -1.1749   -5.8336    1.4368 C.2       1 <0>         0.5322
     32 N3         -2.1754   -5.1314    0.8796 N.2       1 <0>        -0.6635
     33 C27        -2.0938   -3.8384    0.6908 C.2       1 <0>         0.6352
     34 O3         -3.1456   -3.2094    0.1304 O.3       1 <0>        -0.6417
     35 O4         -1.2756   -7.0373    1.6068 O.2       1 <0>        -0.5219
     36 H1         -1.7844    2.7240   -0.7234 H         1 <0>         0.0734
     37 H2         -1.2556    3.0248    0.9494 H         1 <0>         0.0687
     38 H3         -0.0481    2.8002   -0.3389 H         1 <0>         0.0707
     39 H4         -2.4747    1.1301    1.8539 H         1 <0>         0.1348
     40 H5         -2.4676   -1.2916    2.2903 H         1 <0>         0.1296
     41 H6          0.4465   -1.8317   -0.7914 H         1 <0>         0.1285
     42 H7          1.9609   -5.2117    2.8073 H         1 <0>         0.1446
     43 H8          1.3148   -7.5519    4.6775 H         1 <0>         0.1374
     44 H9          1.2323  -10.1220    3.9533 H         1 <0>         0.1350
     45 H10         0.9984  -10.2207    1.3458 H         1 <0>         0.1591
     46 H11         0.4544   -8.5286   -0.5134 H         1 <0>         0.1032
     47 H12         0.2353   -6.8240   -0.0501 H         1 <0>         0.1051
     48 H13         2.7318   -6.5853    0.0750 H         1 <0>         0.0674
     49 H14         2.8885   -8.2559   -0.5191 H         1 <0>         0.0689
     50 H15         4.5552   -7.2914   -0.9801 H         1 <0>         0.1268
     51 H16         6.6231   -6.7589   -2.2039 H         1 <0>         0.1232
     52 H17         6.5033   -5.7734   -4.4564 H         1 <0>         0.1225
     53 H18         4.3166   -5.3173   -5.4894 H         1 <0>         0.1277
     54 H19         1.9835   -5.7072   -5.5372 H         1 <0>         0.0742
     55 H20         1.1768   -6.5908   -4.2194 H         1 <0>         0.0858
     56 H21         1.1871   -4.3432   -2.8607 H         1 <0>         0.1072
     57 H22         0.5868   -2.5916   -4.3719 H         1 <0>         0.0983
     58 H23         1.1075   -3.6596   -5.8167 H         1 <0>         0.0940
@<TRIPOS>BOND
     1    1    2 1
     2    1   36 1
     3    1   37 1
     4    1   38 1
     5    2    7 ar
     6    2    3 ar
     7    3    4 ar
     8    3   39 1
     9    4    5 ar
    10    4   40 1
    11    5    6 ar
    12    5    9 1
    13    6    7 ar
    14    6   41 1
    15    7    8 1
    16    9   33 1
    17    9   10 am
    18   10   11 2
    19   10   12 1
    20   12   13 2
    21   12   31 1
    22   13   14 1
    23   13   42 1
    24   14   18 1
    25   14   15 2
    26   15   16 1
    27   15   43 1
    28   16   17 2
    29   16   44 1
    30   17   18 1
    31   17   45 1
    32   18   19 1
    33   19   20 1
    34   19   46 1
    35   19   47 1
    36   20   21 1
    37   20   48 1
    38   20   49 1
    39   21   22 1
    40   22   27 ar
    41   22   23 ar
    42   23   24 ar
    43   23   50 1
    44   24   25 ar
    45   24   51 1
    46   25   26 ar
    47   25   52 1
    48   26   27 ar
    49   26   53 1
    50   27   28 1
    51   28   29 1
    52   28   54 1
    53   28   55 1
    54   29   30 2
    55   29   56 1
    56   30   57 1
    57   30   58 1
    58   31   32 1
    59   31   35 2
    60   32   33 2
    61   33   34 1
@<TRIPOS>MOLECULE
ZINC31374605
   66    65     0     0     0
SMALL
USER_CHARGES
2,2,4-trimethylpentyl 2-[2-oxo-2-(2,2,4-trimethylpentoxy)ethyl]disulfanyldisulfanylacetate
@<TRIPOS>ATOM
      1 C1          4.5834   -0.3889   -3.2965 C.3       1 <0>        -0.1608
      2 C2          3.6136   -0.6414   -4.4526 C.3       1 <0>        -0.1043
      3 C3          4.3163   -1.4586   -5.5385 C.3       1 <0>        -0.1510
      4 C4          2.3978   -1.4151   -3.9386 C.3       1 <0>        -0.1078
      5 C5          1.4765   -0.4655   -3.1702 C.3       1 <0>        -0.0593
      6 C6          1.5665    0.9356   -3.7783 C.3       1 <0>        -0.1493
      7 C7          1.9071   -0.4133   -1.7030 C.3       1 <0>        -0.1552
      8 C8          0.0347   -0.9692   -3.2610 C.3       1 <0>         0.0760
      9 O1         -0.8396   -0.0680   -2.5317 O.3       1 <0>        -0.3437
     10 C9         -2.1474   -0.3698   -2.5133 C.2       1 <0>         0.4595
     11 O2         -2.5483   -1.3544   -3.0875 O.2       1 <0>        -0.4820
     12 C10        -3.1165    0.5228   -1.7817 C.3       1 <0>        -0.1186
     13 S1         -4.7955   -0.1436   -1.9472 S.3       1 <0>        -0.0340
     14 S2         -4.7668   -1.8487   -0.8096 S.3       1 <0>        -0.0518
     15 S3         -5.4972   -1.2445    1.0081 S.3       1 <0>        -0.0518
     16 S4         -7.5319   -1.3661    0.7903 S.3       1 <0>        -0.0340
     17 C11        -7.9474   -3.0021    1.4547 C.3       1 <0>        -0.1186
     18 C12        -7.7549   -3.0010    2.9494 C.2       1 <0>         0.4596
     19 O3         -7.3762   -1.9993    3.5089 O.2       1 <0>        -0.4819
     20 O4         -8.0041   -4.1127    3.6590 O.3       1 <0>        -0.3435
     21 C13        -7.7969   -4.0389    5.0943 C.3       1 <0>         0.0758
     22 C14        -8.1295   -5.3913    5.7278 C.3       1 <0>        -0.0592
     23 C15        -9.5906   -5.7433    5.4408 C.3       1 <0>        -0.1472
     24 C16        -7.2194   -6.4694    5.1359 C.3       1 <0>        -0.1591
     25 C17        -7.9113   -5.3135    7.2401 C.3       1 <0>        -0.1070
     26 C18        -8.2565   -6.6619    7.8753 C.3       1 <0>        -0.0982
     27 C19        -7.0496   -7.5969    7.7748 C.3       1 <0>        -0.1751
     28 C20        -8.6198   -6.4544    9.3470 C.3       1 <0>        -0.1501
     29 H1          4.0782    0.1986   -2.5158 H         1 <0>         0.0678
     30 H2          5.4575    0.1673   -3.6660 H         1 <0>         0.0533
     31 H3          4.9117   -1.3511   -2.8765 H         1 <0>         0.0545
     32 H4          3.2853    0.3208   -4.8726 H         1 <0>         0.0848
     33 H5          3.6190   -1.6401   -6.3697 H         1 <0>         0.0540
     34 H6          4.6446   -2.4208   -5.1185 H         1 <0>         0.0537
     35 H7          5.1904   -0.9024   -5.9080 H         1 <0>         0.0553
     36 H8          1.8514   -1.8471   -4.7900 H         1 <0>         0.0658
     37 H9          2.7325   -2.2221   -3.2702 H         1 <0>         0.0696
     38 H10         0.9041    1.6183   -3.2259 H         1 <0>         0.0615
     39 H11         1.2569    0.8980   -4.8332 H         1 <0>         0.0560
     40 H12         2.6031    1.2977   -3.7130 H         1 <0>         0.0694
     41 H13         1.2447    0.2694   -1.1506 H         1 <0>         0.0618
     42 H14         2.9437   -0.0512   -1.6378 H         1 <0>         0.0732
     43 H15         1.8424   -1.4206   -1.2658 H         1 <0>         0.0542
     44 H16        -0.2748   -1.0067   -4.3159 H         1 <0>         0.0740
     45 H17        -0.0300   -1.9766   -2.8239 H         1 <0>         0.0730
     46 H18        -2.8427    0.5667   -0.7172 H         1 <0>         0.1379
     47 H19        -3.0795    1.5346   -2.2118 H         1 <0>         0.1624
     48 H20        -8.9960   -3.2375    1.2202 H         1 <0>         0.1624
     49 H21        -7.2913   -3.7595    1.0011 H         1 <0>         0.1380
     50 H22        -6.7465   -3.7858    5.3006 H         1 <0>         0.0731
     51 H23        -8.4512   -3.2638    5.5199 H         1 <0>         0.0739
     52 H24        -9.8298   -6.7156    5.8962 H         1 <0>         0.0649
     53 H25        -9.7475   -5.7992    4.3535 H         1 <0>         0.0634
     54 H26       -10.2449   -4.9682    5.8664 H         1 <0>         0.0552
     55 H27        -7.4586   -7.4417    5.5914 H         1 <0>         0.0809
     56 H28        -6.1690   -6.2163    5.3422 H         1 <0>         0.0556
     57 H29        -7.3764   -6.5253    4.0486 H         1 <0>         0.0610
     58 H30        -6.8587   -5.0697    7.4466 H         1 <0>         0.0674
     59 H31        -8.5588   -4.5319    7.6643 H         1 <0>         0.0669
     60 H32        -9.1113   -7.1083    7.3461 H         1 <0>         0.0787
     61 H33        -7.2978   -8.5663    8.2315 H         1 <0>         0.0522
     62 H34        -6.1948   -7.1504    8.3040 H         1 <0>         0.0531
     63 H35        -6.7885   -7.7461    6.7167 H         1 <0>         0.0804
     64 H36        -8.8680   -7.4239    9.8036 H         1 <0>         0.0551
     65 H37        -9.4875   -5.7822    9.4192 H         1 <0>         0.0543
     66 H38        -7.7651   -6.0079    9.8762 H         1 <0>         0.0540
@<TRIPOS>BOND
     1    1    2 1
     2    1   29 1
     3    1   30 1
     4    1   31 1
     5    2    3 1
     6    2    4 1
     7    2   32 1
     8    3   33 1
     9    3   34 1
    10    3   35 1
    11    4    5 1
    12    4   36 1
    13    4   37 1
    14    5    6 1
    15    5    7 1
    16    5    8 1
    17    6   38 1
    18    6   39 1
    19    6   40 1
    20    7   41 1
    21    7   42 1
    22    7   43 1
    23    8    9 1
    24    8   44 1
    25    8   45 1
    26    9   10 1
    27   10   11 2
    28   10   12 1
    29   12   13 1
    30   12   46 1
    31   12   47 1
    32   13   14 1
    33   14   15 1
    34   15   16 1
    35   16   17 1
    36   17   18 1
    37   17   48 1
    38   17   49 1
    39   18   19 2
    40   18   20 1
    41   20   21 1
    42   21   22 1
    43   21   50 1
    44   21   51 1
    45   22   23 1
    46   22   24 1
    47   22   25 1
    48   23   52 1
    49   23   53 1
    50   23   54 1
    51   24   55 1
    52   24   56 1
    53   24   57 1
    54   25   26 1
    55   25   58 1
    56   25   59 1
    57   26   27 1
    58   26   28 1
    59   26   60 1
    60   27   61 1
    61   27   62 1
    62   27   63 1
    63   28   64 1
    64   28   65 1
    65   28   66 1
@<TRIPOS>MOLECULE
ZINC36557497
   82    82     0     0     0
SMALL
USER_CHARGES

@<TRIPOS>ATOM
      1 C1         -7.8238   -0.4401    6.9939 C.3       1 <0>        -0.1539
      2 C2         -7.6118   -1.9363    6.7543 C.3       1 <0>        -0.1265
      3 C3         -6.5007   -2.1350    5.7214 C.3       1 <0>        -0.1200
      4 C4         -6.2888   -3.6312    5.4818 C.3       1 <0>        -0.1169
      5 C5         -5.1777   -3.8299    4.4489 C.3       1 <0>        -0.0986
      6 C6         -4.9689   -5.3036    4.2130 C.2       1 <0>        -0.0570
      7 C7         -5.0406   -5.7963    2.9797 C.2       1 <0>        -0.2175
      8 C8         -4.8368   -7.2348    2.7494 C.2       1 <0>         0.5664
      9 O1         -4.6028   -7.9735    3.6867 O.2       1 <0>        -0.5198
     10 N1         -4.9094   -7.7341    1.4996 N.am      1 <0>        -0.5921
     11 C9         -5.1913   -6.8442    0.3705 C.3       1 <0>         0.1936
     12 C10        -3.9064   -6.2206   -0.1105 C.2       1 <0>        -0.0415
     13 C11        -3.1408   -6.6749   -1.1189 C.2       1 <0>        -0.1847
     14 C12        -2.0407   -5.7935   -1.2271 C.2       1 <0>        -0.2146
     15 C13        -2.1999   -4.8532   -0.2784 C.2       1 <0>        -0.0034
     16 O2         -3.3346   -5.1137    0.3910 O.3       1 <0>        -0.1662
     17 C14        -1.2662   -3.7000   -0.0151 C.3       1 <0>        -0.0766
     18 C15        -4.7065   -9.1667    1.2702 C.3       1 <0>         0.1676
     19 H1         -4.7072   -9.3668    0.1987 H         1 <0>         0.1070
     20 C16        -3.3845   -9.5874    1.8589 C.2       1 <0>        -0.1670
     21 C17        -2.4239  -10.0114    1.0755 C.2       1 <0>        -0.1300
     22 C18        -1.1020  -10.4321    1.6642 C.3       1 <0>        -0.0925
     23 C19        -0.7734  -11.8568    1.2136 C.3       1 <0>        -0.1190
     24 C20         0.5688  -12.2839    1.8112 C.3       1 <0>        -0.1548
     25 C21        -5.8186   -9.9431    1.9270 C.2       1 <0>         0.5047
     26 O3         -6.6253   -9.3708    2.6290 O.2       1 <0>        -0.5079
     27 N2         -5.9169  -11.2734    1.7342 N.am      1 <0>        -0.7222
     28 C22        -7.0578  -12.0107    2.2828 C.3       1 <0>         0.1766
     29 C23        -6.9908  -11.9906    3.8112 C.3       1 <0>        -0.1604
     30 C24        -8.3598  -11.3532    1.8207 C.3       1 <0>        -0.1708
     31 C25        -7.0144  -13.4583    1.7894 C.3       1 <0>        -0.1154
     32 C26        -6.3724  -13.5050    0.4013 C.3       1 <0>        -0.0704
     33 C27        -4.8492  -13.4803    0.5428 C.3       1 <0>        -0.1585
     34 C28        -6.7974  -14.7888   -0.3142 C.3       1 <0>        -0.1405
     35 C29        -6.8288  -12.2925   -0.4126 C.3       1 <0>        -0.1897
     36 H2         -8.6153   -0.2985    7.7297 H         1 <0>         0.0536
     37 H3         -6.8995    0.0030    7.3647 H         1 <0>         0.0534
     38 H4         -8.1075    0.0412    6.0579 H         1 <0>         0.0533
     39 H5         -7.3281   -2.4175    7.6902 H         1 <0>         0.0613
     40 H6         -8.5361   -2.3794    6.3835 H         1 <0>         0.0612
     41 H7         -6.7844   -1.6538    4.7854 H         1 <0>         0.0621
     42 H8         -5.5764   -1.6919    6.0922 H         1 <0>         0.0624
     43 H9         -6.0051   -4.1124    6.4178 H         1 <0>         0.0659
     44 H10        -7.2130   -4.0743    5.1110 H         1 <0>         0.0651
     45 H11        -5.4613   -3.3487    3.5130 H         1 <0>         0.0719
     46 H12        -4.2534   -3.3868    4.8197 H         1 <0>         0.0818
     47 H13        -4.7611   -5.9597    5.0453 H         1 <0>         0.1248
     48 H14        -5.2484   -5.1402    2.1474 H         1 <0>         0.1249
     49 H15        -5.6428   -7.4168   -0.4396 H         1 <0>         0.1117
     50 H16        -5.8788   -6.0604    0.6885 H         1 <0>         0.1009
     51 H17        -3.3299   -7.5462   -1.7284 H         1 <0>         0.1452
     52 H18        -1.2282   -5.8621   -1.9353 H         1 <0>         0.1469
     53 H19        -1.5701   -2.8422   -0.6150 H         1 <0>         0.0822
     54 H20        -1.3039   -3.4360    1.0417 H         1 <0>         0.0764
     55 H21        -0.2492   -3.9878   -0.2817 H         1 <0>         0.0886
     56 H22        -3.2290   -9.5393    2.9265 H         1 <0>         0.1308
     57 H23        -2.5794  -10.0595    0.0078 H         1 <0>         0.1086
     58 H24        -0.3200   -9.7537    1.3230 H         1 <0>         0.0739
     59 H25        -1.1619  -10.3997    2.7520 H         1 <0>         0.0680
     60 H26        -1.5553  -12.5352    1.5547 H         1 <0>         0.0621
     61 H27        -0.7134  -11.8892    0.1257 H         1 <0>         0.0626
     62 H28         0.8029  -13.2989    1.4903 H         1 <0>         0.0552
     63 H29         1.3507  -11.6055    1.4701 H         1 <0>         0.0543
     64 H30         0.5088  -12.2516    2.8991 H         1 <0>         0.0543
     65 H31        -5.2322  -11.7426    1.2323 H         1 <0>         0.4055
     66 H32        -7.1116  -10.9673    4.1667 H         1 <0>         0.0751
     67 H33        -7.7878  -12.6131    4.2180 H         1 <0>         0.0610
     68 H34        -6.0254  -12.3771    4.1377 H         1 <0>         0.0534
     69 H35        -8.2999  -11.1393    0.7535 H         1 <0>         0.0670
     70 H36        -9.1946  -12.0280    2.0097 H         1 <0>         0.0602
     71 H37        -8.5122  -10.4239    2.3695 H         1 <0>         0.0756
     72 H38        -6.4266  -14.0608    2.4820 H         1 <0>         0.0714
     73 H39        -8.0286  -13.8539    1.7341 H         1 <0>         0.0794
     74 H40        -4.5763  -13.7060    1.5737 H         1 <0>         0.0636
     75 H41        -4.4105  -14.2256   -0.1206 H         1 <0>         0.0673
     76 H42        -4.4755  -12.4916    0.2762 H         1 <0>         0.0581
     77 H43        -7.8826  -14.8064   -0.4150 H         1 <0>         0.0556
     78 H44        -6.3401  -14.8221   -1.3030 H         1 <0>         0.0561
     79 H45        -6.4723  -15.6526    0.2657 H         1 <0>         0.0555
     80 H46        -6.7284  -11.3907    0.1914 H         1 <0>         0.0993
     81 H47        -6.2115  -12.2017   -1.3064 H         1 <0>         0.0493
     82 H48        -7.8715  -12.4212   -0.7028 H         1 <0>         0.0555
@<TRIPOS>BOND
     1    1    2 1
     2    1   36 1
     3    1   37 1
     4    1   38 1
     5    2    3 1
     6    2   39 1
     7    2   40 1
     8    3    4 1
     9    3   41 1
    10    3   42 1
    11    4    5 1
    12    4   43 1
    13    4   44 1
    14    5    6 1
    15    5   45 1
    16    5   46 1
    17    6    7 2
    18    6   47 1
    19    7    8 1
    20    7   48 1
    21    8    9 2
    22    8   10 am
    23   10   11 1
    24   10   18 1
    25   11   12 1
    26   11   49 1
    27   11   50 1
    28   12   16 1
    29   12   13 2
    30   13   14 1
    31   13   51 1
    32   14   15 2
    33   14   52 1
    34   15   16 1
    35   15   17 1
    36   17   53 1
    37   17   54 1
    38   17   55 1
    39   18   19 1
    40   18   20 1
    41   18   25 1
    42   20   21 2
    43   20   56 1
    44   21   22 1
    45   21   57 1
    46   22   23 1
    47   22   58 1
    48   22   59 1
    49   23   24 1
    50   23   60 1
    51   23   61 1
    52   24   62 1
    53   24   63 1
    54   24   64 1
    55   25   26 2
    56   25   27 am
    57   27   28 1
    58   27   65 1
    59   28   29 1
    60   28   30 1
    61   28   31 1
    62   29   66 1
    63   29   67 1
    64   29   68 1
    65   30   69 1
    66   30   70 1
    67   30   71 1
    68   31   32 1
    69   31   72 1
    70   31   73 1
    71   32   33 1
    72   32   34 1
    73   32   35 1
    74   33   74 1
    75   33   75 1
    76   33   76 1
    77   34   77 1
    78   34   78 1
    79   34   79 1
    80   35   80 1
    81   35   81 1
    82   35   82 1
@<TRIPOS>MOLECULE
ZINC40019529
   83    85     0     0     0
SMALL
USER_CHARGES

@<TRIPOS>ATOM
      1 C1          1.1224    2.4756   -5.6959 C.3       1 <0>        -0.1574
      2 C2          0.7131    1.0022   -5.6481 C.3       1 <0>        -0.1211
      3 C3          1.3393    0.3385   -4.4200 C.3       1 <0>        -0.1482
      4 C4          0.9299   -1.1350   -4.3721 C.3       1 <0>        -0.0159
      5 N1          1.5312   -1.7722   -3.1930 N.4       1 <0>        -0.3850
      6 C5          0.9714   -1.1735   -1.9739 C.3       1 <0>        -0.0135
      7 C6          1.7083   -1.7232   -0.7510 C.3       1 <0>        -0.1519
      8 C7          1.0690   -1.1664    0.5226 C.3       1 <0>        -0.1189
      9 C8          1.8060   -1.7160    1.7456 C.3       1 <0>        -0.1589
     10 C9          1.2377   -3.2114   -3.2111 C.3       1 <0>        -0.0102
     11 C10         1.9256   -3.8572   -4.4155 C.3       1 <0>        -0.1702
     12 C11         1.7365   -5.3743   -4.3580 C.3       1 <0>         0.1420
     13 N2          2.3951   -5.9926   -5.5113 N.am      1 <0>        -0.6168
     14 C12         1.7827   -6.2507   -6.8198 C.3       1 <0>         0.2691
     15 H1          1.4602   -5.3137   -7.2740 H         1 <0>         0.0692
     16 C13         2.8545   -6.8965   -7.6665 C.2       1 <0>        -0.4976
     17 C14         3.9614   -6.9870   -6.8933 C.2       1 <0>         0.2578
     18 C15         3.6702   -6.4191   -5.5602 C.2       1 <0>         0.5151
     19 O1          4.4641   -6.3503   -4.6430 O.2       1 <0>        -0.5302
     20 O2          5.1476   -7.5100   -7.2805 O.3       1 <0>        -0.6436
     21 C16         2.7211   -7.3397   -9.0580 C.2       1 <0>         0.5030
     22 O3          2.7918   -8.5241   -9.3287 O.2       1 <0>        -0.4689
     23 C17         2.5011   -6.3494  -10.1302 C.ar      1 <0>        -0.1710
     24 C18         2.5441   -4.9818   -9.8411 C.ar      1 <0>        -0.0323
     25 C19         2.3384   -4.0616  -10.8438 C.ar      1 <0>        -0.2240
     26 C20         2.0875   -4.4902  -12.1428 C.ar      1 <0>         0.1440
     27 C21         2.0438   -5.8489  -12.4345 C.ar      1 <0>        -0.1303
     28 C22         2.2547   -6.7759  -11.4386 C.ar      1 <0>        -0.0348
     29 C23         1.7710   -6.3075  -13.8438 C.3       1 <0>        -0.1032
     30 O4          1.8843   -3.5798  -13.1283 O.3       1 <0>        -0.3112
     31 C24         1.9425   -2.2005  -12.7593 C.3       1 <0>         0.0591
     32 C25         1.6909   -1.3315  -13.9932 C.3       1 <0>        -0.1248
     33 C26         1.7532    0.1453  -13.5981 C.3       1 <0>        -0.1492
     34 C27         0.6088   -7.1833   -6.6677 C.ar      1 <0>        -0.0844
     35 C28         0.6572   -8.2082   -5.7409 C.ar      1 <0>        -0.0807
     36 C29        -0.4174   -9.0648   -5.5998 C.ar      1 <0>        -0.1431
     37 C30        -1.5461   -8.8956   -6.3886 C.ar      1 <0>         0.0958
     38 C31        -1.5924   -7.8661   -7.3174 C.ar      1 <0>        -0.1433
     39 C32        -0.5171   -7.0091   -7.4511 C.ar      1 <0>        -0.0997
     40 O5         -2.6044   -9.7371   -6.2520 O.3       1 <0>        -0.4986
     41 H2          0.7745    2.9789   -4.7938 H         1 <0>         0.0572
     42 H3          2.2082    2.5492   -5.7571 H         1 <0>         0.0591
     43 H4          0.6763    2.9484   -6.5708 H         1 <0>         0.0653
     44 H5         -0.3727    0.9286   -5.5868 H         1 <0>         0.0721
     45 H6          1.0611    0.4989   -6.5501 H         1 <0>         0.0746
     46 H7          2.4251    0.4121   -4.4812 H         1 <0>         0.0862
     47 H8          0.9913    0.8417   -3.5179 H         1 <0>         0.0844
     48 H9         -0.1558   -1.2086   -4.3109 H         1 <0>         0.1292
     49 H10         1.2779   -1.6382   -5.2742 H         1 <0>         0.1346
     50 H11         1.0901   -0.0907   -2.0133 H         1 <0>         0.1304
     51 H12        -0.0878   -1.4205   -1.9012 H         1 <0>         0.1285
     52 H13         1.6417   -2.8112   -0.7452 H         1 <0>         0.0884
     53 H14         2.7555   -1.4236   -0.7928 H         1 <0>         0.0872
     54 H15         1.1357   -0.0784    0.5169 H         1 <0>         0.0712
     55 H16         0.0218   -1.4660    0.5644 H         1 <0>         0.0718
     56 H17         1.7393   -2.8040    1.7513 H         1 <0>         0.0599
     57 H18         2.8531   -1.4164    1.7038 H         1 <0>         0.0593
     58 H19         1.3505   -1.3193    2.6529 H         1 <0>         0.0646
     59 H20         1.6069   -3.6691   -2.2933 H         1 <0>         0.1339
     60 H21         0.1605   -3.3617   -3.2842 H         1 <0>         0.1313
     61 H22         1.4861   -3.4709   -5.3352 H         1 <0>         0.0907
     62 H23         2.9898   -3.6226   -4.3950 H         1 <0>         0.0913
     63 H24         2.1760   -5.7606   -3.4384 H         1 <0>         0.0863
     64 H25         0.6722   -5.6089   -4.3786 H         1 <0>         0.0853
     65 H26         2.7382   -4.6481   -8.8325 H         1 <0>         0.1310
     66 H27         2.3715   -3.0053  -10.6214 H         1 <0>         0.1249
     67 H28         2.2250   -7.8311  -11.6668 H         1 <0>         0.1370
     68 H29         2.7135   -6.4079  -14.3821 H         1 <0>         0.0671
     69 H30         1.2616   -7.2709  -13.8202 H         1 <0>         0.0655
     70 H31         1.1405   -5.5755  -14.3485 H         1 <0>         0.0678
     71 H32         1.1811   -1.9931  -12.0074 H         1 <0>         0.0595
     72 H33         2.9275   -1.9749  -12.3508 H         1 <0>         0.0614
     73 H34         2.4523   -1.5389  -14.7451 H         1 <0>         0.0744
     74 H35         0.7058   -1.5570  -14.4017 H         1 <0>         0.0734
     75 H36         1.5739    0.7645  -14.4772 H         1 <0>         0.0647
     76 H37         0.9918    0.3528  -12.8462 H         1 <0>         0.0557
     77 H38         2.7382    0.3709  -13.1896 H         1 <0>         0.0572
     78 H39         1.5360   -8.3395   -5.1271 H         1 <0>         0.1205
     79 H40        -0.3789   -9.8656   -4.8763 H         1 <0>         0.1249
     80 H41        -2.4698   -7.7323   -7.9327 H         1 <0>         0.1251
     81 H42        -0.5544   -6.2048   -8.1709 H         1 <0>         0.1231
     82 H43        -3.2575   -9.4453   -5.6013 H         1 <0>         0.3845
     83 H44         2.5304   -1.6325   -3.2080 H         1 <0>         0.4235
@<TRIPOS>BOND
     1    1    2 1
     2    1   41 1
     3    1   42 1
     4    1   43 1
     5    2    3 1
     6    2   44 1
     7    2   45 1
     8    3    4 1
     9    3   46 1
    10    3   47 1
    11    4    5 1
    12    4   48 1
    13    4   49 1
    14    5    6 1
    15    5   10 1
    16    5   83 1
    17    6    7 1
    18    6   50 1
    19    6   51 1
    20    7    8 1
    21    7   52 1
    22    7   53 1
    23    8    9 1
    24    8   54 1
    25    8   55 1
    26    9   56 1
    27    9   57 1
    28    9   58 1
    29   10   11 1
    30   10   59 1
    31   10   60 1
    32   11   12 1
    33   11   61 1
    34   11   62 1
    35   12   13 1
    36   12   63 1
    37   12   64 1
    38   13   18 am
    39   13   14 1
    40   14   15 1
    41   14   16 1
    42   14   34 1
    43   16   17 2
    44   16   21 1
    45   17   18 1
    46   17   20 1
    47   18   19 2
    48   21   22 2
    49   21   23 1
    50   23   28 ar
    51   23   24 ar
    52   24   25 ar
    53   24   65 1
    54   25   26 ar
    55   25   66 1
    56   26   27 ar
    57   26   30 1
    58   27   28 ar
    59   27   29 1
    60   28   67 1
    61   29   68 1
    62   29   69 1
    63   29   70 1
    64   30   31 1
    65   31   32 1
    66   31   71 1
    67   31   72 1
    68   32   33 1
    69   32   73 1
    70   32   74 1
    71   33   75 1
    72   33   76 1
    73   33   77 1
    74   34   39 ar
    75   34   35 ar
    76   35   36 ar
    77   35   78 1
    78   36   37 ar
    79   36   79 1
    80   37   38 ar
    81   37   40 1
    82   38   39 ar
    83   38   80 1
    84   39   81 1
    85   40   82 1
@<TRIPOS>MOLECULE
ZINC40212169
   85    88     0     0     0
SMALL
USER_CHARGES

@<TRIPOS>ATOM
      1 C1         -0.0187    1.5258    0.0104 C.3       1 <0>        -0.1555
      2 C2          0.0021   -0.0041    0.0020 C.3       1 <0>        -0.1164
      3 C3          0.7421   -0.5109    1.2415 C.3       1 <0>        -0.0492
      4 H1          1.7350   -0.0630    1.2804 H         1 <0>         0.0764
      5 C4         -0.0416   -0.1236    2.4973 C.3       1 <0>        -0.1466
      6 C5          0.8700   -2.0108    1.1719 C.ar      1 <0>        -0.1119
      7 C6         -0.2649   -2.7981    1.1086 C.ar      1 <0>        -0.0745
      8 C7         -0.1503   -4.1733    1.0452 C.ar      1 <0>        -0.1488
      9 C8          1.1048   -4.7643    1.0445 C.ar      1 <0>         0.1246
     10 C9          2.2420   -3.9722    1.1077 C.ar      1 <0>        -0.2058
     11 C10         2.1222   -2.5972    1.1657 C.ar      1 <0>        -0.0775
     12 O1          1.2201   -6.1170    0.9826 O.3       1 <0>        -0.3158
     13 C11         2.5435   -6.6561    0.9860 C.3       1 <0>         0.0611
     14 C12         2.4725   -8.1827    0.9117 C.3       1 <0>        -0.1153
     15 C13         3.8895   -8.7599    0.9153 C.3       1 <0>        -0.1345
     16 C14         3.8185  -10.2864    0.8410 C.3       1 <0>         0.1115
     17 N1          5.1753  -10.8391    0.8444 N.pl3     1 <0>        -0.4876
     18 C15         5.9596  -11.0893   -0.2637 C.ar      1 <0>         0.0473
     19 C16         5.7800  -10.9308   -1.6312 C.ar      1 <0>        -0.1117
     20 C17         6.7902  -11.2881   -2.4985 C.ar      1 <0>        -0.1015
     21 C18         7.9835  -11.8047   -2.0137 C.ar      1 <0>        -0.1279
     22 C19         8.1778  -11.9681   -0.6715 C.ar      1 <0>        -0.0645
     23 C20         7.1682  -11.6121    0.2266 C.ar      1 <0>         0.0464
     24 N2          7.0613  -11.6530    1.5796 N.2       1 <0>        -0.4904
     25 C21         5.8980  -11.1954    1.9405 C.2       1 <0>         0.2870
     26 C22         5.4195  -11.0803    3.3649 C.3       1 <0>        -0.0449
     27 C23         4.7136  -12.3752    3.7720 C.3       1 <0>        -0.1124
     28 C24         4.2279  -12.2583    5.2182 C.3       1 <0>        -0.1157
     29 C25         3.5220  -13.5532    5.6253 C.3       1 <0>        -0.1312
     30 C26         3.0362  -13.4363    7.0715 C.3       1 <0>         0.1171
     31 N3          2.3603  -14.6762    7.4613 N.am      1 <0>        -0.7335
     32 C27         1.8467  -14.8027    8.7010 C.2       1 <0>         0.5158
     33 O2          1.9442  -13.8900    9.4937 O.2       1 <0>        -0.5373
     34 C28         1.1514  -16.0781    9.1020 C.3       1 <0>        -0.1063
     35 C29        -0.0455  -16.3181    8.1798 C.3       1 <0>        -0.1097
     36 C30        -0.7515  -17.6131    8.5869 C.3       1 <0>        -0.1185
     37 C31        -1.2372  -17.4962   10.0330 C.3       1 <0>        -0.1233
     38 C32        -0.0402  -17.2561   10.9553 C.3       1 <0>        -0.1207
     39 C33         0.6657  -15.9612   10.5481 C.3       1 <0>        -0.0999
     40 H2          1.0039    1.9031    0.0027 H         1 <0>         0.0538
     41 H3         -0.5459    1.8868   -0.8726 H         1 <0>         0.0546
     42 H4         -0.5289    1.8773    0.9072 H         1 <0>         0.0576
     43 H5         -1.0205   -0.3814    0.0098 H         1 <0>         0.0633
     44 H6          0.5123   -0.3556   -0.8948 H         1 <0>         0.0622
     45 H7          0.4856   -0.4847    3.3803 H         1 <0>         0.0550
     46 H8         -0.1341    0.9613    2.5476 H         1 <0>         0.0610
     47 H9         -1.0345   -0.5716    2.4584 H         1 <0>         0.0563
     48 H10        -1.2418   -2.3375    1.1091 H         1 <0>         0.1283
     49 H11        -1.0371   -4.7878    0.9965 H         1 <0>         0.1299
     50 H12         3.2202   -4.4299    1.1073 H         1 <0>         0.1256
     51 H13         3.0072   -1.9799    1.2104 H         1 <0>         0.1236
     52 H14         3.0930   -6.2756    0.1249 H         1 <0>         0.0628
     53 H15         3.0540   -6.3603    1.9025 H         1 <0>         0.0633
     54 H16         1.9231   -8.5632    1.7727 H         1 <0>         0.0801
     55 H17         1.9620   -8.4785   -0.0048 H         1 <0>         0.0793
     56 H18         4.4390   -8.3794    0.0543 H         1 <0>         0.0749
     57 H19         4.4000   -8.4640    1.8318 H         1 <0>         0.0750
     58 H20         3.2690  -10.6669    1.7021 H         1 <0>         0.0970
     59 H21         3.3080  -10.5823   -0.0755 H         1 <0>         0.0932
     60 H22         4.8530  -10.5298   -2.0137 H         1 <0>         0.1201
     61 H23         6.6519  -11.1653   -3.5626 H         1 <0>         0.1298
     62 H24         8.7663  -12.0808   -2.7047 H         1 <0>         0.1296
     63 H25         9.1101  -12.3718   -0.3051 H         1 <0>         0.1286
     64 H26         6.2723  -10.9093    4.0219 H         1 <0>         0.1026
     65 H27         4.7236  -10.2454    3.4481 H         1 <0>         0.0845
     66 H28         3.8609  -12.5462    3.1150 H         1 <0>         0.0627
     67 H29         5.4095  -13.2100    3.6889 H         1 <0>         0.0745
     68 H30         5.0806  -12.0873    5.8752 H         1 <0>         0.0720
     69 H31         3.5320  -11.4235    5.3014 H         1 <0>         0.0685
     70 H32         2.6692  -13.7242    4.9683 H         1 <0>         0.0692
     71 H33         4.2179  -14.3880    5.5421 H         1 <0>         0.0712
     72 H34         3.8890  -13.2653    7.7285 H         1 <0>         0.0681
     73 H35         2.3403  -12.6015    7.1546 H         1 <0>         0.0672
     74 H36         2.2824  -15.4061    6.8272 H         1 <0>         0.4002
     75 H37         1.8473  -16.9129    9.0188 H         1 <0>         0.0970
     76 H38        -0.7414  -15.4833    8.2629 H         1 <0>         0.0683
     77 H39         0.3005  -16.4014    7.1495 H         1 <0>         0.0651
     78 H40        -1.6042  -17.7841    7.9299 H         1 <0>         0.0663
     79 H41        -0.0556  -18.4479    8.5037 H         1 <0>         0.0647
     80 H42        -1.9331  -16.6613   10.1162 H         1 <0>         0.0630
     81 H43        -1.7401  -18.4187   10.3231 H         1 <0>         0.0637
     82 H44        -0.3863  -17.1729   11.9855 H         1 <0>         0.0665
     83 H45         0.6557  -18.0909   10.8721 H         1 <0>         0.0626
     84 H46         1.5185  -15.7902   11.2051 H         1 <0>         0.0693
     85 H47        -0.0302  -15.1264   10.6313 H         1 <0>         0.0698
@<TRIPOS>BOND
     1    1    2 1
     2    1   40 1
     3    1   41 1
     4    1   42 1
     5    2    3 1
     6    2   43 1
     7    2   44 1
     8    3    4 1
     9    3    5 1
    10    3    6 1
    11    5   45 1
    12    5   46 1
    13    5   47 1
    14    6   11 ar
    15    6    7 ar
    16    7    8 ar
    17    7   48 1
    18    8    9 ar
    19    8   49 1
    20    9   10 ar
    21    9   12 1
    22   10   11 ar
    23   10   50 1
    24   11   51 1
    25   12   13 1
    26   13   14 1
    27   13   52 1
    28   13   53 1
    29   14   15 1
    30   14   54 1
    31   14   55 1
    32   15   16 1
    33   15   56 1
    34   15   57 1
    35   16   17 1
    36   16   58 1
    37   16   59 1
    38   17   25 1
    39   17   18 1
    40   18   23 ar
    41   18   19 ar
    42   19   20 ar
    43   19   60 1
    44   20   21 ar
    45   20   61 1
    46   21   22 ar
    47   21   62 1
    48   22   23 ar
    49   22   63 1
    50   23   24 1
    51   24   25 2
    52   25   26 1
    53   26   27 1
    54   26   64 1
    55   26   65 1
    56   27   28 1
    57   27   66 1
    58   27   67 1
    59   28   29 1
    60   28   68 1
    61   28   69 1
    62   29   30 1
    63   29   70 1
    64   29   71 1
    65   30   31 1
    66   30   72 1
    67   30   73 1
    68   31   32 am
    69   31   74 1
    70   32   33 2
    71   32   34 1
    72   34   39 1
    73   34   35 1
    74   34   75 1
    75   35   36 1
    76   35   76 1
    77   35   77 1
    78   36   37 1
    79   36   78 1
    80   36   79 1
    81   37   38 1
    82   37   80 1
    83   37   81 1
    84   38   39 1
    85   38   82 1
    86   38   83 1
    87   39   84 1
    88   39   85 1
@<TRIPOS>MOLECULE
ZINC59464397
   78    81     0     0     0
SMALL
USER_CHARGES

@<TRIPOS>ATOM
      1 C1         -0.0164    1.3567    0.0095 C.ar      1 <0>        -0.1158
      2 C2          1.1685    2.0906    0.0021 C.ar      1 <0>        -0.1104
      3 C3          2.3785    1.4679   -0.0127 C.ar      1 <0>        -0.1103
      4 C4          2.4378    0.0637   -0.0208 C.ar      1 <0>        -0.0372
      5 C5          1.2328   -0.6827   -0.0133 C.ar      1 <0>        -0.0549
      6 C6          0.0021   -0.0041    0.0020 C.ar      1 <0>        -0.1040
      7 C7          1.2919   -2.0865   -0.0217 C.ar      1 <0>        -0.0951
      8 C8          2.5022   -2.7094   -0.0370 C.ar      1 <0>        -0.1196
      9 C9          3.6867   -1.9757   -0.0439 C.ar      1 <0>        -0.0909
     10 C10         3.6681   -0.6146   -0.0356 C.ar      1 <0>        -0.1005
     11 C11         4.9604    0.1606   -0.0443 C.3       1 <0>         0.1607
     12 N1          5.2687    0.6111    1.3152 N.am      1 <0>        -0.7293
     13 C12         6.3852    1.3283    1.5505 C.2       1 <0>         0.5115
     14 O1          7.1348    1.6007    0.6368 O.2       1 <0>        -0.5379
     15 C13         6.7024    1.7917    2.9490 C.3       1 <0>        -0.1408
     16 C14         8.0144    2.5788    2.9402 C.3       1 <0>        -0.1046
     17 C15         8.3364    3.0493    4.3601 C.3       1 <0>        -0.1204
     18 C16         9.6484    3.8363    4.3513 C.3       1 <0>        -0.1202
     19 C17         9.9703    4.3068    5.7711 C.3       1 <0>        -0.1205
     20 C18        11.2823    5.0939    5.7623 C.3       1 <0>        -0.1205
     21 C19        11.6043    5.5644    7.1821 C.3       1 <0>        -0.1202
     22 C20        12.9163    6.3515    7.1734 C.3       1 <0>        -0.1204
     23 C21        13.2383    6.8220    8.5932 C.3       1 <0>        -0.1046
     24 C22        14.5503    7.6090    8.5844 C.3       1 <0>        -0.1408
     25 C23        14.8674    8.0724    9.9829 C.2       1 <0>         0.5115
     26 O2         14.1179    7.8000   10.8966 O.2       1 <0>        -0.5379
     27 N2         15.9840    8.7896   10.2182 N.am      1 <0>        -0.7293
     28 C24        16.2923    9.2401   11.5777 C.3       1 <0>         0.1607
     29 C25        17.5846   10.0154   11.5691 C.ar      1 <0>        -0.1005
     30 C26        18.7449    9.4155   11.9524 C.ar      1 <0>        -0.0909
     31 C27        19.9492   10.1161   11.9509 C.ar      1 <0>        -0.1196
     32 C28        20.0007   11.4207   11.5657 C.ar      1 <0>        -0.0951
     33 C29        18.8235   12.0735   11.1629 C.ar      1 <0>        -0.0549
     34 C30        17.5991   11.3594   11.1598 C.ar      1 <0>        -0.0372
     35 C31        16.4224   12.0112   10.7526 C.ar      1 <0>        -0.1103
     36 C32        16.4747   13.3141   10.3630 C.ar      1 <0>        -0.1104
     37 C33        17.6796   14.0149   10.3612 C.ar      1 <0>        -0.1159
     38 C34        18.8371   13.4195   10.7586 C.ar      1 <0>        -0.1040
     39 H1         -0.9634    1.8756    0.0259 H         1 <0>         0.1246
     40 H2          1.1258    3.1698    0.0079 H         1 <0>         0.1240
     41 H3          3.2883    2.0497   -0.0187 H         1 <0>         0.1271
     42 H4         -0.9241   -0.5595    0.0078 H         1 <0>         0.1284
     43 H5          0.3820   -2.6682   -0.0158 H         1 <0>         0.1293
     44 H6          2.5449   -3.7886   -0.0435 H         1 <0>         0.1269
     45 H7          4.6338   -2.4947   -0.0557 H         1 <0>         0.1261
     46 H8          5.7653   -0.4789   -0.4064 H         1 <0>         0.0783
     47 H9          4.8607    1.0257   -0.6999 H         1 <0>         0.0782
     48 H10         4.6692    0.3932    2.0460 H         1 <0>         0.4024
     49 H11         5.8974    2.4313    3.3112 H         1 <0>         0.0934
     50 H12         6.8020    0.9266    3.6046 H         1 <0>         0.0934
     51 H13         8.8193    1.9392    2.5781 H         1 <0>         0.0695
     52 H14         7.9147    3.4439    2.2846 H         1 <0>         0.0695
     53 H15         7.5314    3.6888    4.7222 H         1 <0>         0.0619
     54 H16         8.4360    2.1842    5.0157 H         1 <0>         0.0620
     55 H17        10.4533    3.1968    3.9891 H         1 <0>         0.0619
     56 H18         9.5487    4.7014    3.6957 H         1 <0>         0.0619
     57 H19         9.1654    4.9464    6.1332 H         1 <0>         0.0608
     58 H20        10.0700    3.4418    6.4267 H         1 <0>         0.0608
     59 H21        12.0873    4.4544    5.4002 H         1 <0>         0.0608
     60 H22        11.1827    5.9590    5.1067 H         1 <0>         0.0607
     61 H23        10.7994    6.2039    7.5443 H         1 <0>         0.0619
     62 H24        11.7039    4.6993    7.8377 H         1 <0>         0.0619
     63 H25        13.7213    5.7119    6.8112 H         1 <0>         0.0620
     64 H26        12.8167    7.2165    6.5178 H         1 <0>         0.0619
     65 H27        12.4333    7.4615    8.9553 H         1 <0>         0.0694
     66 H28        13.3379    5.9569    9.2488 H         1 <0>         0.0695
     67 H29        15.3552    6.9695    8.2223 H         1 <0>         0.0934
     68 H30        14.4506    8.4741    7.9288 H         1 <0>         0.0934
     69 H31        16.5835    9.0075    9.4874 H         1 <0>         0.4024
     70 H32        15.4874    9.8797   11.9398 H         1 <0>         0.0782
     71 H33        16.3919    8.3751   12.2333 H         1 <0>         0.0783
     72 H34        18.7316    8.3811   12.2627 H         1 <0>         0.1261
     73 H35        20.8555    9.6167   12.2604 H         1 <0>         0.1269
     74 H36        20.9413   11.9513   11.5699 H         1 <0>         0.1293
     75 H37        15.4816   11.4809   10.7485 H         1 <0>         0.1271
     76 H38        15.5691   13.8125   10.0503 H         1 <0>         0.1240
     77 H39        17.6935   15.0482   10.0474 H         1 <0>         0.1246
     78 H40        19.7632   13.9751   10.7523 H         1 <0>         0.1284
@<TRIPOS>BOND
     1    1    6 ar
     2    1    2 ar
     3    1   39 1
     4    2    3 ar
     5    2   40 1
     6    3    4 ar
     7    3   41 1
     8    4   10 ar
     9    4    5 ar
    10    5    6 ar
    11    5    7 ar
    12    6   42 1
    13    7    8 ar
    14    7   43 1
    15    8    9 ar
    16    8   44 1
    17    9   10 ar
    18    9   45 1
    19   10   11 1
    20   11   12 1
    21   11   46 1
    22   11   47 1
    23   12   13 am
    24   12   48 1
    25   13   14 2
    26   13   15 1
    27   15   16 1
    28   15   49 1
    29   15   50 1
    30   16   17 1
    31   16   51 1
    32   16   52 1
    33   17   18 1
    34   17   53 1
    35   17   54 1
    36   18   19 1
    37   18   55 1
    38   18   56 1
    39   19   20 1
    40   19   57 1
    41   19   58 1
    42   20   21 1
    43   20   59 1
    44   20   60 1
    45   21   22 1
    46   21   61 1
    47   21   62 1
    48   22   23 1
    49   22   63 1
    50   22   64 1
    51   23   24 1
    52   23   65 1
    53   23   66 1
    54   24   25 1
    55   24   67 1
    56   24   68 1
    57   25   26 2
    58   25   27 am
    59   27   28 1
    60   27   69 1
    61   28   29 1
    62   28   70 1
    63   28   71 1
    64   29   34 ar
    65   29   30 ar
    66   30   31 ar
    67   30   72 1
    68   31   32 ar
    69   31   73 1
    70   32   33 ar
    71   32   74 1
    72   33   38 ar
    73   33   34 ar
    74   34   35 ar
    75   35   36 ar
    76   35   75 1
    77   36   37 ar
    78   36   76 1
    79   37   38 ar
    80   37   77 1
    81   38   78 1
@<TRIPOS>MOLECULE
ZINC27235576
   76    78     0     0     0
SMALL
USER_CHARGES
(2S,3S)-3-(4-butoxyphenyl)-2-(4-chlorophenyl)-1-morpholino-nonan-3-ol
@<TRIPOS>ATOM
      1 C1          8.1644   -1.4810    4.0168 C.3       1 <0>        -0.1546
      2 C2          6.7746   -0.8423    4.0550 C.3       1 <0>        -0.1255
      3 C3          6.2309   -0.7184    2.6303 C.3       1 <0>        -0.1162
      4 C4          4.8411   -0.0797    2.6685 C.3       1 <0>        -0.1198
      5 C5          4.2974    0.0441    1.2437 C.3       1 <0>        -0.1364
      6 C6          2.9076    0.6828    1.2820 C.3       1 <0>        -0.0968
      7 C7          2.2913    0.6473   -0.1180 C.3       1 <0>         0.2064
      8 C8          0.8610    1.1168   -0.0492 C.ar      1 <0>        -0.1504
      9 C9         -0.1707    0.1983   -0.1123 C.ar      1 <0>        -0.0644
     10 C10        -1.4828    0.6267   -0.0552 C.ar      1 <0>        -0.2079
     11 C11        -1.7647    1.9786    0.0770 C.ar      1 <0>         0.1336
     12 C12        -0.7278    2.8981    0.1405 C.ar      1 <0>        -0.1519
     13 C13         0.5825    2.4652    0.0773 C.ar      1 <0>        -0.0715
     14 O1         -3.0546    2.4020    0.1386 O.3       1 <0>        -0.3156
     15 C14        -4.0706    1.3997    0.0673 C.3       1 <0>         0.0574
     16 C15        -5.4473    2.0619    0.1518 C.3       1 <0>        -0.1212
     17 C16        -6.5350    0.9887    0.0755 C.3       1 <0>        -0.1223
     18 C17        -7.9117    1.6509    0.1600 C.3       1 <0>        -0.1545
     19 C18         3.0855    1.5662   -1.0484 C.3       1 <0>        -0.0705
     20 H1          3.1768    2.5657   -0.5982 H         1 <0>         0.0876
     21 C19         2.3712    1.6667   -2.3976 C.3       1 <0>         0.0595
     22 N1          3.0987    2.5995   -3.2686 N.3       1 <0>        -0.5255
     23 C20         3.0612    3.9652   -2.7257 C.3       1 <0>         0.0146
     24 C21         3.8792    4.8907   -3.6303 C.3       1 <0>         0.0619
     25 O2          3.3645    4.8235   -4.9629 O.3       1 <0>        -0.3842
     26 C22         3.3867    3.5077   -5.5229 C.3       1 <0>         0.0623
     27 C23         2.5637    2.5682   -4.6375 C.3       1 <0>         0.0185
     28 C24         4.4676    1.0013   -1.2526 C.ar      1 <0>        -0.0296
     29 C25         4.6241   -0.2837   -1.7379 C.ar      1 <0>        -0.0889
     30 C26         5.8915   -0.8003   -1.9308 C.ar      1 <0>        -0.1103
     31 C27         7.0036   -0.0353   -1.6273 C.ar      1 <0>        -0.0374
     32 C28         6.8463    1.2485   -1.1362 C.ar      1 <0>        -0.1112
     33 C29         5.5785    1.7661   -0.9492 C.ar      1 <0>        -0.1035
     34 Cl1         8.5957   -0.6863   -1.8620 Cl        1 <0>        -0.0784
     35 O3          2.3302   -0.6894   -0.6217 O.3       1 <0>        -0.5647
     36 H2          8.5553   -1.5701    5.0412 H         1 <0>         0.0524
     37 H3          8.8408   -0.8518    3.4196 H         1 <0>         0.0536
     38 H4          8.0963   -2.4803    3.5621 H         1 <0>         0.0533
     39 H5          6.0982   -1.4715    4.6522 H         1 <0>         0.0589
     40 H6          6.8427    0.1570    4.5097 H         1 <0>         0.0589
     41 H7          6.9073   -0.0892    2.0332 H         1 <0>         0.0598
     42 H8          6.1628   -1.7177    2.1756 H         1 <0>         0.0594
     43 H9          4.1647   -0.7089    3.2657 H         1 <0>         0.0559
     44 H10         4.9092    0.9196    3.1231 H         1 <0>         0.0556
     45 H11         4.9738    0.6733    0.6465 H         1 <0>         0.0846
     46 H12         4.2293   -0.9552    0.7891 H         1 <0>         0.0744
     47 H13         2.2663    0.1238    1.9793 H         1 <0>         0.0686
     48 H14         2.9928    1.7265    1.6188 H         1 <0>         0.0712
     49 H15         0.0494   -0.8544   -0.2107 H         1 <0>         0.1327
     50 H16        -2.2883   -0.0907   -0.1093 H         1 <0>         0.1272
     51 H17        -0.9448    3.9514    0.2397 H         1 <0>         0.1298
     52 H18         1.3901    3.1806    0.1263 H         1 <0>         0.1248
     53 H19        -3.9831    0.8560   -0.8849 H         1 <0>         0.0626
     54 H20        -3.9505    0.6956    0.9039 H         1 <0>         0.0632
     55 H21        -5.5348    2.6056    1.1040 H         1 <0>         0.0750
     56 H22        -5.5675    2.7659   -0.6848 H         1 <0>         0.0747
     57 H23        -6.4475    0.4450   -0.8767 H         1 <0>         0.0652
     58 H24        -6.4148    0.2847    0.9121 H         1 <0>         0.0655
     59 H25        -8.6937    0.8792    0.1051 H         1 <0>         0.0586
     60 H26        -8.0319    2.3549   -0.6766 H         1 <0>         0.0567
     61 H27        -7.9992    2.1946    1.1122 H         1 <0>         0.0568
     62 H28         2.3384    0.6738   -2.8699 H         1 <0>         0.0762
     63 H29         1.3457    2.0333   -2.2431 H         1 <0>         0.0490
     64 H30         2.0192    4.3154   -2.6857 H         1 <0>         0.0434
     65 H31         3.4883    3.9687   -1.7120 H         1 <0>         0.0855
     66 H32         3.8073    5.9237   -3.2591 H         1 <0>         0.0979
     67 H33         4.9319    4.5718   -3.6253 H         1 <0>         0.0606
     68 H34         2.9557    3.5325   -6.5346 H         1 <0>         0.0984
     69 H35         4.4253    3.1490   -5.5755 H         1 <0>         0.0607
     70 H36         2.6244    1.5430   -5.0315 H         1 <0>         0.0861
     71 H37         1.5137    2.8959   -4.6284 H         1 <0>         0.0423
     72 H38         3.7558   -0.8823   -1.9706 H         1 <0>         0.1384
     73 H39         6.0136   -1.8026   -2.3141 H         1 <0>         0.1268
     74 H40         7.7141    1.8461   -0.8988 H         1 <0>         0.1271
     75 H41         5.4556    2.7682   -0.5655 H         1 <0>         0.1223
     76 H42         1.9290   -0.9123   -1.6214 H         1 <0>         0.3970
@<TRIPOS>BOND
     1    1    2 1
     2    1   36 1
     3    1   37 1
     4    1   38 1
     5    2    3 1
     6    2   39 1
     7    2   40 1
     8    3    4 1
     9    3   41 1
    10    3   42 1
    11    4    5 1
    12    4   43 1
    13    4   44 1
    14    5    6 1
    15    5   45 1
    16    5   46 1
    17    6    7 1
    18    6   47 1
    19    6   48 1
    20    7    8 1
    21    7   19 1
    22    7   35 1
    23    8   13 ar
    24    8    9 ar
    25    9   10 ar
    26    9   49 1
    27   10   11 ar
    28   10   50 1
    29   11   12 ar
    30   11   14 1
    31   12   13 ar
    32   12   51 1
    33   13   52 1
    34   14   15 1
    35   15   16 1
    36   15   53 1
    37   15   54 1
    38   16   17 1
    39   16   55 1
    40   16   56 1
    41   17   18 1
    42   17   57 1
    43   17   58 1
    44   18   59 1
    45   18   60 1
    46   18   61 1
    47   19   20 1
    48   19   21 1
    49   19   28 1
    50   21   22 1
    51   21   62 1
    52   21   63 1
    53   22   27 1
    54   22   23 1
    55   23   24 1
    56   23   64 1
    57   23   65 1
    58   24   25 1
    59   24   66 1
    60   24   67 1
    61   25   26 1
    62   26   27 1
    63   26   68 1
    64   26   69 1
    65   27   70 1
    66   27   71 1
    67   28   33 ar
    68   28   29 ar
    69   29   30 ar
    70   29   72 1
    71   30   31 ar
    72   30   73 1
    73   31   32 ar
    74   31   34 1
    75   32   33 ar
    76   32   74 1
    77   33   75 1
    78   35   76 1
@<TRIPOS>MOLECULE
ZINC36507793
   84    86     0     0     0
SMALL
USER_CHARGES

@<TRIPOS>ATOM
      1 C1         -2.3707    0.2375   -0.4439 C.3       1 <0>        -0.1536
      2 C2         -1.6388   -1.0907   -0.2408 C.3       1 <0>        -0.1257
      3 C3         -0.9070   -1.4720   -1.5292 C.3       1 <0>        -0.1174
      4 C4         -0.1751   -2.8001   -1.3261 C.3       1 <0>        -0.1166
      5 C5          0.5567   -3.1814   -2.6145 C.3       1 <0>        -0.1364
      6 C6          1.3868   -4.4441   -2.3749 C.3       1 <0>         0.1262
      7 N1          2.1779   -4.7427   -3.5712 N.am      1 <0>        -0.5756
      8 C7          3.5676   -4.2880   -3.6627 C.3       1 <0>         0.1400
      9 H1          3.9483   -4.4827   -4.6653 H         1 <0>         0.1330
     10 C8          3.6321   -2.8093   -3.3792 C.2       1 <0>        -0.1772
     11 C9          4.0047   -1.9776   -4.3202 C.2       1 <0>        -0.1181
     12 C10         4.0692   -0.4989   -4.0367 C.3       1 <0>        -0.0947
     13 C11         5.4670    0.0244   -4.3731 C.3       1 <0>        -0.1193
     14 C12         5.5324    1.5257   -4.0853 C.3       1 <0>        -0.1551
     15 C13         4.4063   -5.0299   -2.6541 C.2       1 <0>         0.5147
     16 O1          3.8937   -5.8570   -1.9302 O.2       1 <0>        -0.5222
     17 N2          5.7260   -4.7743   -2.5566 N.am      1 <0>        -0.7187
     18 C14         6.5413   -5.4955   -1.5761 C.3       1 <0>         0.1514
     19 C15         6.4537   -4.7892   -0.2217 C.3       1 <0>        -0.1279
     20 C16         7.3052   -5.5425    0.8023 C.3       1 <0>        -0.1172
     21 C17         8.7615   -5.5686    0.3340 C.3       1 <0>        -0.1221
     22 C18         8.8492   -6.2749   -1.0204 C.3       1 <0>        -0.1156
     23 C19         7.9977   -5.5217   -2.0444 C.3       1 <0>        -0.1254
     24 C20         1.6273   -5.4356   -4.5876 C.2       1 <0>         0.5663
     25 O2          0.4523   -5.7472   -4.5451 O.2       1 <0>        -0.5237
     26 C21         2.4478   -5.8153   -5.7491 C.2       1 <0>        -0.1440
     27 C22         1.9208   -5.7588   -7.0014 C.2       1 <0>        -0.0133
     28 C23         2.6713   -6.3067   -8.1396 C.ar      1 <0>        -0.0772
     29 C24         3.4939   -7.4258   -7.9669 C.ar      1 <0>        -0.0845
     30 C25         4.1942   -7.9338   -9.0401 C.ar      1 <0>        -0.1227
     31 C26         4.0856   -7.3403  -10.2859 C.ar      1 <0>        -0.1060
     32 C27         3.2746   -6.2329  -10.4652 C.ar      1 <0>        -0.1249
     33 C28         2.5629   -5.7158   -9.4038 C.ar      1 <0>        -0.0971
     34 C29         3.8471   -6.2588   -5.5539 C.ar      1 <0>        -0.0459
     35 C30         4.1419   -7.2595   -4.6277 C.ar      1 <0>        -0.1016
     36 C31         5.4477   -7.6683   -4.4504 C.ar      1 <0>        -0.1045
     37 C32         6.4636   -7.0880   -5.1888 C.ar      1 <0>        -0.1111
     38 C33         6.1777   -6.0948   -6.1086 C.ar      1 <0>        -0.1138
     39 C34         4.8752   -5.6816   -6.2995 C.ar      1 <0>        -0.1078
     40 H2         -1.6494    1.0150   -0.6958 H         1 <0>         0.0526
     41 H3         -3.0920    0.1346   -1.2546 H         1 <0>         0.0534
     42 H4         -2.8920    0.5091    0.4740 H         1 <0>         0.0532
     43 H5         -0.9175   -0.9878    0.5699 H         1 <0>         0.0600
     44 H6         -2.3601   -1.8681    0.0111 H         1 <0>         0.0611
     45 H7         -1.6283   -1.5748   -2.3399 H         1 <0>         0.0611
     46 H8         -0.1857   -0.6945   -1.7811 H         1 <0>         0.0594
     47 H9          0.5462   -2.6972   -0.5154 H         1 <0>         0.0606
     48 H10        -0.8964   -3.5776   -1.0742 H         1 <0>         0.0638
     49 H11        -0.1712   -3.3695   -3.4037 H         1 <0>         0.0679
     50 H12         1.2145   -2.3655   -2.9138 H         1 <0>         0.0656
     51 H13         2.0545   -4.2847   -1.5282 H         1 <0>         0.0786
     52 H14         0.7219   -5.2809   -2.1608 H         1 <0>         0.0804
     53 H15         3.3710   -2.4353   -2.4002 H         1 <0>         0.1188
     54 H16         4.2658   -2.3516   -5.2992 H         1 <0>         0.1120
     55 H17         3.3302    0.0205   -4.6467 H         1 <0>         0.0768
     56 H18         3.8590   -0.3217   -2.9819 H         1 <0>         0.0689
     57 H19         6.2060   -0.4951   -3.7631 H         1 <0>         0.0626
     58 H20         5.6772   -0.1528   -5.4278 H         1 <0>         0.0636
     59 H21         4.7934    2.0451   -4.6953 H         1 <0>         0.0548
     60 H22         5.3222    1.7029   -3.0305 H         1 <0>         0.0542
     61 H23         6.5283    1.8985   -4.3249 H         1 <0>         0.0556
     62 H24         6.1360   -4.1128   -3.1356 H         1 <0>         0.3975
     63 H25         6.1728   -6.5166   -1.4779 H         1 <0>         0.0870
     64 H26         6.8222   -3.7681   -0.3199 H         1 <0>         0.0622
     65 H27         5.4161   -4.7706    0.1119 H         1 <0>         0.0653
     66 H28         7.2427   -5.0393    1.7672 H         1 <0>         0.0640
     67 H29         6.9367   -6.5636    0.9004 H         1 <0>         0.0635
     68 H30         9.1300   -4.5475    0.2358 H         1 <0>         0.0622
     69 H31         9.3681   -6.1052    1.0635 H         1 <0>         0.0634
     70 H32         9.8867   -6.2935   -1.3540 H         1 <0>         0.0666
     71 H33         8.4807   -7.2960   -0.9222 H         1 <0>         0.0643
     72 H34         8.0601   -6.0248   -3.0093 H         1 <0>         0.0695
     73 H35         8.3661   -4.5006   -2.1426 H         1 <0>         0.0663
     74 H36         0.9507   -5.3113   -7.1594 H         1 <0>         0.1372
     75 H37         3.5801   -7.8898   -6.9954 H         1 <0>         0.1279
     76 H38         4.8297   -8.7970   -8.9085 H         1 <0>         0.1226
     77 H39         4.6369   -7.7432  -11.1226 H         1 <0>         0.1225
     78 H40         3.1956   -5.7755  -11.4404 H         1 <0>         0.1247
     79 H41         1.9268   -4.8547   -9.5464 H         1 <0>         0.1257
     80 H42         3.3497   -7.7129   -4.0505 H         1 <0>         0.1211
     81 H43         5.6773   -8.4427   -3.7334 H         1 <0>         0.1206
     82 H44         7.4842   -7.4115   -5.0464 H         1 <0>         0.1206
     83 H45         6.9752   -5.6454   -6.6817 H         1 <0>         0.1233
     84 H46         4.6527   -4.9096   -7.0212 H         1 <0>         0.1223
@<TRIPOS>BOND
     1    1    2 1
     2    1   40 1
     3    1   41 1
     4    1   42 1
     5    2    3 1
     6    2   43 1
     7    2   44 1
     8    3    4 1
     9    3   45 1
    10    3   46 1
    11    4    5 1
    12    4   47 1
    13    4   48 1
    14    5    6 1
    15    5   49 1
    16    5   50 1
    17    6    7 1
    18    6   51 1
    19    6   52 1
    20    7    8 1
    21    7   24 am
    22    8    9 1
    23    8   10 1
    24    8   15 1
    25   10   11 2
    26   10   53 1
    27   11   12 1
    28   11   54 1
    29   12   13 1
    30   12   55 1
    31   12   56 1
    32   13   14 1
    33   13   57 1
    34   13   58 1
    35   14   59 1
    36   14   60 1
    37   14   61 1
    38   15   16 2
    39   15   17 am
    40   17   18 1
    41   17   62 1
    42   18   23 1
    43   18   19 1
    44   18   63 1
    45   19   20 1
    46   19   64 1
    47   19   65 1
    48   20   21 1
    49   20   66 1
    50   20   67 1
    51   21   22 1
    52   21   68 1
    53   21   69 1
    54   22   23 1
    55   22   70 1
    56   22   71 1
    57   23   72 1
    58   23   73 1
    59   24   25 2
    60   24   26 1
    61   26   27 2
    62   26   34 1
    63   27   28 1
    64   27   74 1
    65   28   33 ar
    66   28   29 ar
    67   29   30 ar
    68   29   75 1
    69   30   31 ar
    70   30   76 1
    71   31   32 ar
    72   31   77 1
    73   32   33 ar
    74   32   78 1
    75   33   79 1
    76   34   39 ar
    77   34   35 ar
    78   35   36 ar
    79   35   80 1
    80   36   37 ar
    81   36   81 1
    82   37   38 ar
    83   37   82 1
    84   38   39 ar
    85   38   83 1
    86   39   84 1
@<TRIPOS>MOLECULE
ZINC36517386
   71    70     0     0     0
SMALL
USER_CHARGES

@<TRIPOS>ATOM
      1 C1          2.4130   -1.4480   -4.8456 C.3       1 <0>        -0.1549
      2 C2          2.0888   -2.9385   -4.7262 C.3       1 <0>        -0.1257
      3 C3          0.7350   -3.1122   -4.0350 C.3       1 <0>        -0.1198
      4 C4          0.4108   -4.6026   -3.9156 C.3       1 <0>        -0.1186
      5 C5         -0.9431   -4.7763   -3.2244 C.3       1 <0>        -0.1408
      6 C6         -1.2673   -6.2668   -3.1051 C.3       1 <0>         0.1059
      7 N1         -2.5636   -6.4332   -2.4432 N.am      1 <0>        -0.5994
      8 C7         -3.7921   -6.4804   -3.2400 C.3       1 <0>         0.1698
      9 H1         -3.5443   -6.3766   -4.2963 H         1 <0>         0.1165
     10 C8         -4.7037   -5.3545   -2.8248 C.2       1 <0>        -0.1884
     11 C9         -4.2948   -4.4692   -1.9501 C.2       1 <0>        -0.1056
     12 C10        -5.2064   -3.3433   -1.5350 C.3       1 <0>        -0.0913
     13 C11        -5.3543   -3.3420   -0.0122 C.3       1 <0>        -0.1167
     14 C12        -6.2798   -2.1989    0.4093 C.3       1 <0>        -0.1528
     15 C13        -4.4869   -7.7985   -3.0142 C.2       1 <0>         0.5123
     16 O1         -4.0034   -8.6178   -2.2619 O.2       1 <0>        -0.5108
     17 N2         -5.6454   -8.0669   -3.6484 N.am      1 <0>        -0.7245
     18 C14        -6.3208   -9.3483   -3.4289 C.3       1 <0>         0.1800
     19 C15        -5.3652  -10.4935   -3.7700 C.3       1 <0>        -0.1635
     20 C16        -6.7443   -9.4571   -1.9627 C.3       1 <0>        -0.1713
     21 C17        -7.5582   -9.4326   -4.3248 C.3       1 <0>        -0.1134
     22 C18        -8.5964   -8.4104   -3.8580 C.3       1 <0>        -0.0660
     23 C19        -7.9399   -7.0333   -3.7420 C.3       1 <0>        -0.1701
     24 C20        -9.7406   -8.3462   -4.8717 C.3       1 <0>        -0.1423
     25 C21        -9.1470   -8.8294   -2.4934 C.3       1 <0>        -0.1558
     26 C22        -2.6261   -6.5427   -1.1014 C.2       1 <0>         0.5131
     27 O2         -3.6993   -6.6804   -0.5535 O.2       1 <0>        -0.4812
     28 C23        -1.3624   -6.4941   -0.2818 C.3       1 <0>        -0.0646
     29 Cl1        -1.7723   -6.6658    1.4656 Cl        1 <0>        -0.1291
     30 H2          3.3775   -1.3242   -5.3380 H         1 <0>         0.0539
     31 H3          1.6391   -0.9537   -5.4329 H         1 <0>         0.0534
     32 H4          2.4533   -1.0041   -3.8509 H         1 <0>         0.0536
     33 H5          2.0486   -3.3823   -5.7209 H         1 <0>         0.0608
     34 H6          2.8627   -3.4327   -4.1389 H         1 <0>         0.0611
     35 H7          0.7752   -2.6683   -3.0403 H         1 <0>         0.0617
     36 H8         -0.0389   -2.6179   -4.6224 H         1 <0>         0.0618
     37 H9          0.3705   -5.0465   -4.9103 H         1 <0>         0.0653
     38 H10         1.1846   -5.0969   -3.3283 H         1 <0>         0.0648
     39 H11        -0.9028   -4.3325   -2.2297 H         1 <0>         0.0647
     40 H12        -1.7170   -4.2821   -3.8118 H         1 <0>         0.0718
     41 H13        -1.3075   -6.7107   -4.0998 H         1 <0>         0.0844
     42 H14        -0.4934   -6.7611   -2.5177 H         1 <0>         0.0818
     43 H15        -5.6942   -5.2775   -3.2484 H         1 <0>         0.1217
     44 H16        -3.3043   -4.5462   -1.5265 H         1 <0>         0.1071
     45 H17        -4.7816   -2.3934   -1.8596 H         1 <0>         0.0708
     46 H18        -6.1851   -3.4798   -1.9950 H         1 <0>         0.0654
     47 H19        -5.7790   -4.2919    0.3125 H         1 <0>         0.0658
     48 H20        -4.3756   -3.2055    0.4478 H         1 <0>         0.0599
     49 H21        -6.3852   -2.1979    1.4942 H         1 <0>         0.0547
     50 H22        -5.8551   -1.2490    0.0847 H         1 <0>         0.0526
     51 H23        -7.2585   -2.3354   -0.0507 H         1 <0>         0.0528
     52 H24        -6.0321   -7.4117   -4.2501 H         1 <0>         0.4020
     53 H25        -4.5286  -10.4889   -3.0714 H         1 <0>         0.0804
     54 H26        -5.8951  -11.4431   -3.6960 H         1 <0>         0.0604
     55 H27        -4.9912  -10.3643   -4.7857 H         1 <0>         0.0509
     56 H28        -7.1897   -8.5152   -1.6424 H         1 <0>         0.0731
     57 H29        -7.4739  -10.2596   -1.8538 H         1 <0>         0.0655
     58 H30        -5.8711   -9.6739   -1.3474 H         1 <0>         0.0653
     59 H31        -7.2757   -9.2188   -5.3556 H         1 <0>         0.0675
     60 H32        -7.9826  -10.4348   -4.2648 H         1 <0>         0.0797
     61 H33        -7.5044   -6.7564   -4.7021 H         1 <0>         0.0518
     62 H34        -8.6904   -6.2958   -3.4573 H         1 <0>         0.0560
     63 H35        -7.1573   -7.0665   -2.9840 H         1 <0>         0.0849
     64 H36       -10.2083   -9.3273   -4.9543 H         1 <0>         0.0552
     65 H37       -10.4803   -7.6179   -4.5391 H         1 <0>         0.0559
     66 H38        -9.3484   -8.0476   -5.8439 H         1 <0>         0.0531
     67 H39        -8.6364   -8.2714   -1.7086 H         1 <0>         0.0680
     68 H40       -10.2157   -8.6187   -2.4525 H         1 <0>         0.0486
     69 H41        -8.9813   -9.8968   -2.3469 H         1 <0>         0.0638
     70 H42        -0.7030   -7.3084   -0.5821 H         1 <0>         0.1194
     71 H43        -0.8599   -5.5407   -0.4451 H         1 <0>         0.1171
@<TRIPOS>BOND
     1    1    2 1
     2    1   30 1
     3    1   31 1
     4    1   32 1
     5    2    3 1
     6    2   33 1
     7    2   34 1
     8    3    4 1
     9    3   35 1
    10    3   36 1
    11    4    5 1
    12    4   37 1
    13    4   38 1
    14    5    6 1
    15    5   39 1
    16    5   40 1
    17    6    7 1
    18    6   41 1
    19    6   42 1
    20    7    8 1
    21    7   26 am
    22    8    9 1
    23    8   10 1
    24    8   15 1
    25   10   11 2
    26   10   43 1
    27   11   12 1
    28   11   44 1
    29   12   13 1
    30   12   45 1
    31   12   46 1
    32   13   14 1
    33   13   47 1
    34   13   48 1
    35   14   49 1
    36   14   50 1
    37   14   51 1
    38   15   16 2
    39   15   17 am
    40   17   18 1
    41   17   52 1
    42   18   19 1
    43   18   20 1
    44   18   21 1
    45   19   53 1
    46   19   54 1
    47   19   55 1
    48   20   56 1
    49   20   57 1
    50   20   58 1
    51   21   22 1
    52   21   59 1
    53   21   60 1
    54   22   23 1
    55   22   24 1
    56   22   25 1
    57   23   61 1
    58   23   62 1
    59   23   63 1
    60   24   64 1
    61   24   65 1
    62   24   66 1
    63   25   67 1
    64   25   68 1
    65   25   69 1
    66   26   27 2
    67   26   28 1
    68   28   29 1
    69   28   70 1
    70   28   71 1
@<TRIPOS>MOLECULE
ZINC36564999
   85    85     0     0     0
SMALL
USER_CHARGES

@<TRIPOS>ATOM
      1 C1         -2.2304   -3.6569   -2.3485 C.3       1 <0>        -0.1535
      2 C2         -1.6374   -4.8151   -3.1534 C.3       1 <0>        -0.1249
      3 C3         -1.1747   -5.9164   -2.1974 C.3       1 <0>        -0.1192
      4 C4         -0.5817   -7.0745   -3.0023 C.3       1 <0>        -0.1066
      5 C5         -0.1189   -8.1758   -2.0463 C.3       1 <0>        -0.1080
      6 H1          0.5721   -7.7558   -1.3155 H         1 <0>         0.0958
      7 C6         -1.3311   -8.7650   -1.3222 C.3       1 <0>        -0.1114
      8 C7         -0.8557   -9.7273   -0.2318 C.3       1 <0>        -0.1523
      9 C8          0.5754   -9.2609   -2.8284 C.2       1 <0>         0.5273
     10 O1         -0.0736  -10.1445   -3.3469 O.2       1 <0>        -0.5293
     11 N1          1.9174   -9.2492   -2.9516 N.am      1 <0>        -0.5958
     12 C9          2.6924   -8.1266   -2.4173 C.3       1 <0>         0.1115
     13 C10         2.9655   -8.3576   -0.9297 C.3       1 <0>        -0.1304
     14 C11         3.7768   -7.1862   -0.3723 C.3       1 <0>        -0.1423
     15 C12         2.6013  -10.3592   -3.6197 C.3       1 <0>         0.1824
     16 H2          2.1992  -11.3051   -3.2566 H         1 <0>         0.1065
     17 C13         2.3852  -10.2597   -5.1078 C.ar      1 <0>        -0.1553
     18 C14         2.5398   -9.0435   -5.7475 C.ar      1 <0>        -0.0460
     19 C15         2.3425   -8.9487   -7.1111 C.ar      1 <0>        -0.1966
     20 C16         1.9883  -10.0769   -7.8401 C.ar      1 <0>         0.2225
     21 C17         1.8338  -11.2970   -7.1943 C.ar      1 <0>        -0.1950
     22 C18         2.0382  -11.3859   -5.8313 C.ar      1 <0>        -0.0505
     23 N2          1.7875   -9.9845   -9.2192 N.pl3     1 <0>        -0.6373
     24 C19         1.9504   -8.6968   -9.8985 C.3       1 <0>         0.0922
     25 C20         1.4141  -11.1754   -9.9864 C.3       1 <0>         0.0919
     26 C21         4.0769  -10.2930   -3.3209 C.2       1 <0>         0.5080
     27 O2          4.4879   -9.5465   -2.4578 O.2       1 <0>        -0.5130
     28 N3          4.9398  -11.0631   -4.0127 N.am      1 <0>        -0.7104
     29 C22         6.3743  -10.9987   -3.7222 C.3       1 <0>         0.1786
     30 C23         6.8932   -9.5915   -4.0247 C.3       1 <0>        -0.1616
     31 C24         6.6107  -11.3230   -2.2458 C.3       1 <0>        -0.1647
     32 C25         7.1171  -12.0143   -4.5927 C.3       1 <0>        -0.1140
     33 C26         6.7208  -13.4315   -4.1738 C.3       1 <0>        -0.0651
     34 C27         5.2054  -13.4995   -3.9746 C.3       1 <0>        -0.1710
     35 C28         7.1368  -14.4207   -5.2644 C.3       1 <0>        -0.1431
     36 C29         7.4241  -13.7914   -2.8636 C.3       1 <0>        -0.1669
     37 H3         -3.0808   -4.0155   -1.7685 H         1 <0>         0.0538
     38 H4         -1.4729   -3.2579   -1.6740 H         1 <0>         0.0537
     39 H5         -2.5601   -2.8724   -3.0296 H         1 <0>         0.0533
     40 H6         -2.3949   -5.2141   -3.8279 H         1 <0>         0.0610
     41 H7         -0.7870   -4.4565   -3.7334 H         1 <0>         0.0602
     42 H8         -0.4171   -5.5173   -1.5229 H         1 <0>         0.0634
     43 H9         -2.0250   -6.2749   -1.6174 H         1 <0>         0.0676
     44 H10        -1.3392   -7.4736   -3.6769 H         1 <0>         0.0698
     45 H11         0.2687   -6.7160   -3.5824 H         1 <0>         0.0637
     46 H12        -1.9103   -7.9603   -0.8693 H         1 <0>         0.0731
     47 H13        -1.9542   -9.3039   -2.0360 H         1 <0>         0.0750
     48 H14        -1.7180  -10.2106    0.2275 H         1 <0>         0.0567
     49 H15        -0.2072  -10.4843   -0.6728 H         1 <0>         0.0520
     50 H16        -0.3033   -9.1727    0.5266 H         1 <0>         0.0525
     51 H17         3.6386   -8.0507   -2.9530 H         1 <0>         0.1037
     52 H18         2.1281   -7.2027   -2.5439 H         1 <0>         0.0592
     53 H19         2.0193   -8.4318   -0.3938 H         1 <0>         0.0481
     54 H20         3.5284   -9.2823   -0.8029 H         1 <0>         0.0862
     55 H21         4.6823   -7.0568   -0.9650 H         1 <0>         0.0565
     56 H22         3.1792   -6.2758   -0.4183 H         1 <0>         0.0460
     57 H23         4.0469   -7.3917    0.6636 H         1 <0>         0.0509
     58 H24         2.8148   -8.1667   -5.1801 H         1 <0>         0.1150
     59 H25         2.4631   -7.9985   -7.6100 H         1 <0>         0.1211
     60 H26         1.5582  -12.1760   -7.7581 H         1 <0>         0.1233
     61 H27         1.9225  -12.3351   -5.3293 H         1 <0>         0.1207
     62 H28         2.9844   -8.5868  -10.2257 H         1 <0>         0.0488
     63 H29         1.2892   -8.6564  -10.7641 H         1 <0>         0.0670
     64 H30         1.6989   -7.8891   -9.2112 H         1 <0>         0.0685
     65 H31         0.3279  -11.2613  -10.0181 H         1 <0>         0.0492
     66 H32         1.8015  -11.0898  -11.0017 H         1 <0>         0.0668
     67 H33         1.8349  -12.0610   -9.5104 H         1 <0>         0.0693
     68 H34         4.6111  -11.6601   -4.7030 H         1 <0>         0.4057
     69 H35         6.3086   -8.8608   -3.4659 H         1 <0>         0.0766
     70 H36         7.9406   -9.5197   -3.7317 H         1 <0>         0.0626
     71 H37         6.8001   -9.3916   -5.0922 H         1 <0>         0.0527
     72 H38         5.9236  -12.1087   -1.9318 H         1 <0>         0.0672
     73 H39         7.6375  -11.6620   -2.1081 H         1 <0>         0.0683
     74 H40         6.4396  -10.4294   -1.6456 H         1 <0>         0.0707
     75 H41         6.8538  -11.8576   -5.6388 H         1 <0>         0.0681
     76 H42         8.1918  -11.8848   -4.4653 H         1 <0>         0.0805
     77 H43         4.7050  -13.2949   -4.9211 H         1 <0>         0.0518
     78 H44         4.9292  -14.4943   -3.6251 H         1 <0>         0.0534
     79 H45         4.9024  -12.7576   -3.2357 H         1 <0>         0.0856
     80 H46         8.2164  -14.3723   -5.4063 H         1 <0>         0.0545
     81 H47         6.8545  -15.4303   -4.9660 H         1 <0>         0.0555
     82 H48         6.6357  -14.1643   -6.1978 H         1 <0>         0.0533
     83 H49         6.9665  -13.2401   -2.0422 H         1 <0>         0.0812
     84 H50         7.3272  -14.8617   -2.6813 H         1 <0>         0.0500
     85 H51         8.4797  -13.5289   -2.9338 H         1 <0>         0.0540
@<TRIPOS>BOND
     1    1    2 1
     2    1   37 1
     3    1   38 1
     4    1   39 1
     5    2    3 1
     6    2   40 1
     7    2   41 1
     8    3    4 1
     9    3   42 1
    10    3   43 1
    11    4    5 1
    12    4   44 1
    13    4   45 1
    14    5    6 1
    15    5    7 1
    16    5    9 1
    17    7    8 1
    18    7   46 1
    19    7   47 1
    20    8   48 1
    21    8   49 1
    22    8   50 1
    23    9   10 2
    24    9   11 am
    25   11   12 1
    26   11   15 1
    27   12   13 1
    28   12   51 1
    29   12   52 1
    30   13   14 1
    31   13   53 1
    32   13   54 1
    33   14   55 1
    34   14   56 1
    35   14   57 1
    36   15   16 1
    37   15   17 1
    38   15   26 1
    39   17   22 ar
    40   17   18 ar
    41   18   19 ar
    42   18   58 1
    43   19   20 ar
    44   19   59 1
    45   20   21 ar
    46   20   23 1
    47   21   22 ar
    48   21   60 1
    49   22   61 1
    50   23   24 1
    51   23   25 1
    52   24   62 1
    53   24   63 1
    54   24   64 1
    55   25   65 1
    56   25   66 1
    57   25   67 1
    58   26   27 2
    59   26   28 am
    60   28   29 1
    61   28   68 1
    62   29   30 1
    63   29   31 1
    64   29   32 1
    65   30   69 1
    66   30   70 1
    67   30   71 1
    68   31   72 1
    69   31   73 1
    70   31   74 1
    71   32   33 1
    72   32   75 1
    73   32   76 1
    74   33   34 1
    75   33   35 1
    76   33   36 1
    77   34   77 1
    78   34   78 1
    79   34   79 1
    80   35   80 1
    81   35   81 1
    82   35   82 1
    83   36   83 1
    84   36   84 1
    85   36   85 1
@<TRIPOS>MOLECULE
ZINC11690597
   72    74     0     0     0
SMALL
USER_CHARGES

@<TRIPOS>ATOM
      1 C1         -0.0187    1.5258    0.0104 C.3       1 <0>        -0.1546
      2 C2          0.0021   -0.0041    0.0020 C.3       1 <0>        -0.1259
      3 C3         -1.4333   -0.5336    0.0129 C.3       1 <0>        -0.1198
      4 C4         -1.4126   -2.0635    0.0045 C.3       1 <0>        -0.1174
      5 C5         -2.8479   -2.5931    0.0153 C.3       1 <0>        -0.1188
      6 C6         -2.8272   -4.1229    0.0069 C.3       1 <0>         0.0558
      7 O1         -4.1678   -4.6175    0.0171 O.3       1 <0>        -0.3005
      8 C7         -4.3277   -5.9676    0.0113 C.ar      1 <0>         0.1287
      9 C8         -3.2145   -6.7958    0.0020 C.ar      1 <0>        -0.1845
     10 C9         -3.3701   -8.1657   -0.0043 C.ar      1 <0>        -0.0627
     11 C10        -4.6528   -8.7233   -0.0008 C.ar      1 <0>        -0.0737
     12 C11        -5.7742   -7.8875    0.0091 C.ar      1 <0>        -0.1377
     13 C12        -5.6087   -6.5154    0.0206 C.ar      1 <0>         0.0943
     14 O2         -6.6967   -5.6996    0.0354 O.3       1 <0>        -0.3041
     15 C13        -7.9796   -6.3292    0.0443 C.3       1 <0>         0.0238
     16 C14        -4.8219  -10.1848   -0.0080 C.2       1 <0>         0.2095
     17 N1         -3.7739  -10.9632   -0.0177 N.2       1 <0>        -0.3764
     18 N2         -3.9222  -12.2446   -0.0240 N.2       1 <0>        -0.3463
     19 C15        -2.8654  -13.0295   -0.0337 C.2       1 <0>         0.3834
     20 N3         -1.5352  -12.6665   -0.0325 N.am      1 <0>        -0.6780
     21 C16        -0.5569  -13.5556   -0.0436 C.2       1 <0>         0.5230
     22 O3          0.6109  -13.2288   -0.0432 O.2       1 <0>        -0.4783
     23 C17        -0.9878  -15.0136   -0.0574 C.3       1 <0>        -0.0885
     24 H1         -0.6441  -15.5356    0.8357 H         1 <0>         0.1592
     25 S1         -2.8177  -14.8154   -0.0438 S.3       1 <0>        -0.0054
     26 C18        -0.5098  -15.7211   -1.3269 C.3       1 <0>        -0.0541
     27 C19        -0.8500  -17.1868   -1.2436 C.ar      1 <0>        -0.1024
     28 C20         0.0488  -18.0742   -0.6818 C.ar      1 <0>        -0.1056
     29 C21        -0.2633  -19.4186   -0.6054 C.ar      1 <0>        -0.1165
     30 C22        -1.4744  -19.8757   -1.0903 C.ar      1 <0>        -0.0744
     31 C23        -2.3737  -18.9882   -1.6512 C.ar      1 <0>        -0.1150
     32 C24        -2.0633  -17.6431   -1.7238 C.ar      1 <0>        -0.1024
     33 C25        -1.8143  -21.3416   -1.0078 C.3       1 <0>        -0.0843
     34 C26        -2.5277  -21.6261    0.3154 C.3       1 <0>        -0.1138
     35 C27        -2.8727  -23.1143    0.3991 C.3       1 <0>        -0.1257
     36 C28        -3.5862  -23.3988    1.7223 C.3       1 <0>        -0.1544
     37 H2          1.0039    1.9031    0.0027 H         1 <0>         0.0540
     38 H3         -0.5459    1.8868   -0.8726 H         1 <0>         0.0539
     39 H4         -0.5289    1.8773    0.9072 H         1 <0>         0.0539
     40 H5          0.5123   -0.3556   -0.8948 H         1 <0>         0.0611
     41 H6          0.5293   -0.3651    0.8851 H         1 <0>         0.0611
     42 H7         -1.9435   -0.1821    0.9097 H         1 <0>         0.0638
     43 H8         -1.9605   -0.1726   -0.8702 H         1 <0>         0.0638
     44 H9         -0.9024   -2.4150   -0.8923 H         1 <0>         0.0653
     45 H10        -0.8854   -2.4246    0.8875 H         1 <0>         0.0653
     46 H11        -3.3581   -2.2415    0.9121 H         1 <0>         0.0750
     47 H12        -3.3751   -2.2320   -0.8677 H         1 <0>         0.0750
     48 H13        -2.3170   -4.4744   -0.8899 H         1 <0>         0.0638
     49 H14        -2.3000   -4.4840    0.8900 H         1 <0>         0.0637
     50 H15        -2.2236   -6.3663   -0.0007 H         1 <0>         0.1396
     51 H16        -2.5018   -8.8079   -0.0123 H         1 <0>         0.1358
     52 H17        -6.7667   -8.3132    0.0118 H         1 <0>         0.1433
     53 H18        -8.0709   -6.9553    0.9318 H         1 <0>         0.0565
     54 H19        -8.7584   -5.5668    0.0558 H         1 <0>         0.1025
     55 H20        -8.0879   -6.9458   -0.8481 H         1 <0>         0.0565
     56 H21        -5.8131  -10.6137   -0.0053 H         1 <0>         0.1176
     57 H22        -1.3087  -11.7233   -0.0234 H         1 <0>         0.4201
     58 H23        -1.0024  -15.2825   -2.1947 H         1 <0>         0.0912
     59 H24         0.5695  -15.6036   -1.4239 H         1 <0>         0.1048
     60 H25         0.9951  -17.7171   -0.3030 H         1 <0>         0.1246
     61 H26         0.4393  -20.1120   -0.1671 H         1 <0>         0.1229
     62 H27        -3.3197  -19.3454   -2.0304 H         1 <0>         0.1236
     63 H28        -2.7674  -16.9492   -2.1586 H         1 <0>         0.1274
     64 H29        -2.4675  -21.6103   -1.8380 H         1 <0>         0.0729
     65 H30        -0.8985  -21.9304   -1.0608 H         1 <0>         0.0725
     66 H31        -1.8744  -21.3573    1.1455 H         1 <0>         0.0631
     67 H32        -3.4435  -21.0373    0.3683 H         1 <0>         0.0637
     68 H33        -3.5260  -23.3831   -0.4310 H         1 <0>         0.0618
     69 H34        -1.9570  -23.7031    0.3462 H         1 <0>         0.0615
     70 H35        -3.8320  -24.4590    1.7820 H         1 <0>         0.0542
     71 H36        -2.9329  -23.1300    2.5525 H         1 <0>         0.0536
     72 H37        -4.5019  -22.8100    1.7753 H         1 <0>         0.0540
@<TRIPOS>BOND
     1    1    2 1
     2    1   37 1
     3    1   38 1
     4    1   39 1
     5    2    3 1
     6    2   40 1
     7    2   41 1
     8    3    4 1
     9    3   42 1
    10    3   43 1
    11    4    5 1
    12    4   44 1
    13    4   45 1
    14    5    6 1
    15    5   46 1
    16    5   47 1
    17    6    7 1
    18    6   48 1
    19    6   49 1
    20    7    8 1
    21    8   13 ar
    22    8    9 ar
    23    9   10 ar
    24    9   50 1
    25   10   11 ar
    26   10   51 1
    27   11   12 ar
    28   11   16 1
    29   12   13 ar
    30   12   52 1
    31   13   14 1
    32   14   15 1
    33   15   53 1
    34   15   54 1
    35   15   55 1
    36   16   17 2
    37   16   56 1
    38   17   18 1
    39   18   19 2
    40   19   25 1
    41   19   20 1
    42   20   21 am
    43   20   57 1
    44   21   22 2
    45   21   23 1
    46   23   24 1
    47   23   25 1
    48   23   26 1
    49   26   27 1
    50   26   58 1
    51   26   59 1
    52   27   32 ar
    53   27   28 ar
    54   28   29 ar
    55   28   60 1
    56   29   30 ar
    57   29   61 1
    58   30   31 ar
    59   30   33 1
    60   31   32 ar
    61   31   62 1
    62   32   63 1
    63   33   34 1
    64   33   64 1
    65   33   65 1
    66   34   35 1
    67   34   66 1
    68   34   67 1
    69   35   36 1
    70   35   68 1
    71   35   69 1
    72   36   70 1
    73   36   71 1
    74   36   72 1
@<TRIPOS>MOLECULE
ZINC12529832
   60    61     0     0     0
SMALL
USER_CHARGES
[2-[2-(1-cyclohexenyl)ethylamino]-2-oxo-ethyl] (2S)-2-[(4-chlorophenyl)sulfonylamino]-4-methylsulfanyl-butanoate
@<TRIPOS>ATOM
      1 C1         -0.0763   -0.0879    0.1930 C.3       1 <0>        -0.1207
      2 S1         -0.0947    1.7257    0.2282 S.3       1 <0>        -0.2594
      3 C2          1.6550    2.1850    0.0932 C.3       1 <0>        -0.0891
      4 C3          1.7850    3.7093    0.1109 C.3       1 <0>        -0.1074
      5 C4          3.2656    4.0950    0.1129 C.3       1 <0>         0.1737
      6 H1          3.7657    3.6208   -0.7316 H         1 <0>         0.1344
      7 C5          3.3949    5.5919   -0.0027 C.2       1 <0>         0.4503
      8 O1          3.9481    6.2196    0.8690 O.2       1 <0>        -0.4851
      9 O2          2.8956    6.2280   -1.0741 O.3       1 <0>        -0.3254
     10 C6          3.0565    7.6704   -1.1187 C.3       1 <0>         0.0475
     11 C7          2.4387    8.2058   -2.3847 C.2       1 <0>         0.5144
     12 O3          1.9145    7.4466   -3.1719 O.2       1 <0>        -0.5103
     13 N1          2.4688    9.5284   -2.6421 N.am      1 <0>        -0.7279
     14 C8          1.8683   10.0490   -3.8728 C.3       1 <0>         0.1264
     15 C9          2.0378   11.5688   -3.9198 C.3       1 <0>        -0.0986
     16 C10         1.4201   12.1043   -5.1857 C.2       1 <0>        -0.1238
     17 C11         0.2025   12.5401   -5.1298 C.2       1 <0>        -0.1440
     18 C12        -0.5479   13.0922   -6.3063 C.3       1 <0>        -0.0925
     19 C13         0.4263   13.4575   -7.4284 C.3       1 <0>        -0.1222
     20 C14         1.3629   12.2660   -7.6649 C.3       1 <0>        -0.1214
     21 C15         2.2569   12.1048   -6.4315 C.3       1 <0>        -0.0834
     22 N2          3.8854    3.6463    1.3622 N.pl3     1 <0>        -1.0942
     23 S2          5.2335    2.6855    1.3192 S.o2      1 <0>         2.6918
     24 O4          5.6031    2.4438    2.6698 O.2       1 <0>        -0.9418
     25 O5          4.9535    1.6334    0.4060 O.2       1 <0>        -0.9426
     26 C16         6.5310    3.6401    0.6051 C.ar      1 <0>        -0.6817
     27 C17         6.7311    3.6204   -0.7626 C.ar      1 <0>        -0.0135
     28 C18         7.7451    4.3733   -1.3239 C.ar      1 <0>        -0.1308
     29 C19         8.5672    5.1380   -0.5154 C.ar      1 <0>         0.0201
     30 C20         8.3701    5.1529    0.8539 C.ar      1 <0>        -0.1295
     31 C21         7.3521    4.4039    1.4134 C.ar      1 <0>         0.0041
     32 Cl1         9.8452    6.0790   -1.2190 Cl        1 <0>        -0.0500
     33 H2          0.5122   -0.4616    1.0309 H         1 <0>         0.0782
     34 H3         -1.0968   -0.4632    0.2698 H         1 <0>         0.1036
     35 H4          0.3667   -0.4287   -0.7428 H         1 <0>         0.0794
     36 H5          2.2072    1.7635    0.9332 H         1 <0>         0.0862
     37 H6          2.0617    1.7964   -0.8405 H         1 <0>         0.0941
     38 H7          1.3023    4.1254   -0.7735 H         1 <0>         0.1083
     39 H8          1.3054    4.1045    1.0064 H         1 <0>         0.0913
     40 H9          2.5628    8.1178   -0.2560 H         1 <0>         0.1054
     41 H10         4.1177    7.9184   -1.0991 H         1 <0>         0.1037
     42 H11         2.8881   10.1357   -2.0125 H         1 <0>         0.4032
     43 H12         2.3620    9.6015   -4.7355 H         1 <0>         0.0724
     44 H13         0.8071    9.8010   -3.8924 H         1 <0>         0.0724
     45 H14         1.5441   12.0163   -3.0571 H         1 <0>         0.0755
     46 H15         3.0990   11.8169   -3.9002 H         1 <0>         0.0767
     47 H16        -0.3049   12.5044   -4.1771 H         1 <0>         0.1035
     48 H17        -1.2525   12.3438   -6.6690 H         1 <0>         0.0749
     49 H18        -1.0942   13.9843   -6.0001 H         1 <0>         0.0718
     50 H19        -0.1298   13.6731   -8.3408 H         1 <0>         0.0655
     51 H20         1.0103   14.3304   -7.1368 H         1 <0>         0.0640
     52 H21         0.7740   11.3613   -7.8157 H         1 <0>         0.0654
     53 H22         1.9789   12.4531   -8.5445 H         1 <0>         0.0660
     54 H23         2.9697   12.9282   -6.3876 H         1 <0>         0.0735
     55 H24         2.8003   11.1626   -6.5020 H         1 <0>         0.0709
     56 H25         3.5061    3.9120    2.2145 H         1 <0>         0.4304
     57 H26         6.0920    3.0199   -1.3931 H         1 <0>         0.1509
     58 H27         7.8985    4.3613   -2.3928 H         1 <0>         0.1468
     59 H28         9.0113    5.7500    1.4854 H         1 <0>         0.1467
     60 H29         7.1979    4.4158    2.4823 H         1 <0>         0.1518
@<TRIPOS>BOND
     1    1    2 1
     2    1   33 1
     3    1   34 1
     4    1   35 1
     5    2    3 1
     6    3    4 1
     7    3   36 1
     8    3   37 1
     9    4    5 1
    10    4   38 1
    11    4   39 1
    12    5    6 1
    13    5    7 1
    14    5   22 1
    15    7    8 2
    16    7    9 1
    17    9   10 1
    18   10   11 1
    19   10   40 1
    20   10   41 1
    21   11   12 2
    22   11   13 am
    23   13   14 1
    24   13   42 1
    25   14   15 1
    26   14   43 1
    27   14   44 1
    28   15   16 1
    29   15   45 1
    30   15   46 1
    31   16   21 1
    32   16   17 2
    33   17   18 1
    34   17   47 1
    35   18   19 1
    36   18   48 1
    37   18   49 1
    38   19   20 1
    39   19   50 1
    40   19   51 1
    41   20   21 1
    42   20   52 1
    43   20   53 1
    44   21   54 1
    45   21   55 1
    46   22   23 1
    47   22   56 1
    48   23   24 2
    49   23   25 2
    50   23   26 1
    51   26   31 ar
    52   26   27 ar
    53   27   28 ar
    54   27   57 1
    55   28   29 ar
    56   28   58 1
    57   29   30 ar
    58   29   32 1
    59   30   31 ar
    60   30   59 1
    61   31   60 1
@<TRIPOS>MOLECULE
ZINC16649485
   77    80     0     0     0
SMALL
USER_CHARGES
2-(benzylcarbamoyl-(3-methoxypropyl)amino)-N-[2-(1H-indol-3-yl)ethyl]-N-(p-tolylmethyl)acetamide
@<TRIPOS>ATOM
      1 C1          2.3313    3.3726    0.2127 C.3       1 <0>        -0.1182
      2 C2          2.0401    1.8948    0.1628 C.ar      1 <0>        -0.0801
      3 C3          0.7391    1.4424    0.2789 C.ar      1 <0>        -0.1193
      4 C4          0.4720    0.0869    0.2327 C.ar      1 <0>        -0.1082
      5 C5          1.5060   -0.8162    0.0703 C.ar      1 <0>        -0.1141
      6 C6          2.8069   -0.3637   -0.0463 C.ar      1 <0>        -0.0968
      7 C7          3.0739    0.9919   -0.0010 C.ar      1 <0>        -0.1183
      8 C8          1.2149   -2.2940    0.0209 C.3       1 <0>         0.1454
      9 N1          1.0961   -2.7219   -1.3752 N.am      1 <0>        -0.6072
     10 C9          2.2981   -3.0522   -2.1449 C.3       1 <0>         0.1257
     11 C10         2.6143   -4.5404   -1.9832 C.3       1 <0>        -0.0554
     12 C11         3.8507   -4.8801   -2.7750 C.2       1 <0>        -0.1690
     13 C12         3.8893   -5.3778   -4.0211 C.2       1 <0>         0.0605
     14 N2          5.1883   -5.5563   -4.4123 N.pl3     1 <0>        -0.5955
     15 H1          5.4681   -5.9021   -5.2743 H         1 <0>         0.4161
     16 C13         6.0389   -5.1761   -3.3985 C.ar      1 <0>         0.0946
     17 C14         5.2384   -4.7358   -2.3284 C.ar      1 <0>        -0.1004
     18 C15         5.8367   -4.2845   -1.1507 C.ar      1 <0>        -0.0715
     19 C16         7.1990   -4.2727   -1.0432 C.ar      1 <0>        -0.1462
     20 C17         7.9930   -4.7064   -2.0956 C.ar      1 <0>        -0.0999
     21 C18         7.4234   -5.1556   -3.2671 C.ar      1 <0>        -0.1301
     22 C19        -0.1189   -2.8118   -1.9514 C.2       1 <0>         0.4996
     23 O1         -0.2252   -3.2495   -3.0775 O.2       1 <0>        -0.5154
     24 C20        -1.3455   -2.3684   -1.1965 C.3       1 <0>         0.1102
     25 N3         -2.5256   -2.5170   -2.0518 N.am      1 <0>        -0.6091
     26 C21        -2.9529   -1.4089   -2.9095 C.3       1 <0>         0.1159
     27 C22        -2.2671   -1.5249   -4.2722 C.3       1 <0>        -0.1368
     28 C23        -2.7134   -0.3676   -5.1680 C.3       1 <0>         0.0628
     29 O2         -2.0729   -0.4760   -6.4408 O.3       1 <0>        -0.3883
     30 C24        -2.4231    0.5623   -7.3580 C.3       1 <0>         0.0311
     31 C25        -3.2182   -3.6733   -2.0496 C.2       1 <0>         0.7160
     32 O3         -2.8636   -4.5930   -1.3378 O.2       1 <0>        -0.5834
     33 N4         -4.3038   -3.8100   -2.8365 N.am      1 <0>        -0.7386
     34 C26        -5.0566   -5.0668   -2.8341 C.3       1 <0>         0.1798
     35 C27        -6.2148   -4.9604   -3.7925 C.ar      1 <0>        -0.1109
     36 C28        -7.4401   -4.5005   -3.3476 C.ar      1 <0>        -0.1002
     37 C29        -8.5011   -4.3983   -4.2277 C.ar      1 <0>        -0.1226
     38 C30        -8.3395   -4.7656   -5.5506 C.ar      1 <0>        -0.1112
     39 C31        -7.1158   -5.2310   -5.9942 C.ar      1 <0>        -0.1214
     40 C32        -6.0533   -5.3281   -5.1152 C.ar      1 <0>        -0.0982
     41 H2          2.5121    3.6726    1.2449 H         1 <0>         0.0721
     42 H3          3.2141    3.5895   -0.3887 H         1 <0>         0.0669
     43 H4          1.4782    3.9245   -0.1820 H         1 <0>         0.0666
     44 H5         -0.0692    2.1481    0.4012 H         1 <0>         0.1223
     45 H6         -0.5444   -0.2667    0.3238 H         1 <0>         0.1209
     46 H7          3.6148   -1.0693   -0.1725 H         1 <0>         0.1224
     47 H8          4.0904    1.3454   -0.0918 H         1 <0>         0.1225
     48 H9          2.0269   -2.8405    0.5006 H         1 <0>         0.0916
     49 H10         0.2807   -2.4980    0.5442 H         1 <0>         0.0899
     50 H11         2.1277   -2.8293   -3.1982 H         1 <0>         0.0816
     51 H12         3.1375   -2.4606   -1.7795 H         1 <0>         0.0762
     52 H13         2.7847   -4.7633   -0.9299 H         1 <0>         0.0696
     53 H14         1.7749   -5.1320   -2.3486 H         1 <0>         0.0744
     54 H15         3.0232   -5.6022   -4.6260 H         1 <0>         0.1696
     55 H16         5.2252   -3.9458   -0.3275 H         1 <0>         0.1189
     56 H17         7.6615   -3.9229   -0.1320 H         1 <0>         0.1215
     57 H18         9.0683   -4.6912   -1.9956 H         1 <0>         0.1242
     58 H19         8.0499   -5.4904   -4.0806 H         1 <0>         0.1187
     59 H20        -1.4643   -2.9823   -0.3037 H         1 <0>         0.1155
     60 H21        -1.2360   -1.3233   -0.9069 H         1 <0>         0.1068
     61 H22        -4.0341   -1.4482   -3.0423 H         1 <0>         0.0774
     62 H23        -2.6782   -0.4623   -2.4440 H         1 <0>         0.0839
     63 H24        -1.1860   -1.4856   -4.1395 H         1 <0>         0.0863
     64 H25        -2.5418   -2.4715   -4.7378 H         1 <0>         0.0755
     65 H26        -3.7945   -0.4069   -5.3008 H         1 <0>         0.0477
     66 H27        -2.4387    0.5789   -4.7024 H         1 <0>         0.0482
     67 H28        -2.1424    1.5281   -6.9379 H         1 <0>         0.0409
     68 H29        -1.8958    0.4085   -8.2995 H         1 <0>         0.0862
     69 H30        -3.4982    0.5423   -7.5362 H         1 <0>         0.0412
     70 H31        -4.5867   -3.0762   -3.4044 H         1 <0>         0.3971
     71 H32        -4.4029   -5.8824   -3.1433 H         1 <0>         0.0758
     72 H33        -5.4327   -5.2631   -1.8301 H         1 <0>         0.0760
     73 H34        -7.5674   -4.2174   -2.3131 H         1 <0>         0.1240
     74 H35        -9.4573   -4.0352   -3.8811 H         1 <0>         0.1242
     75 H36        -9.1695   -4.6894   -6.2374 H         1 <0>         0.1233
     76 H37        -6.9897   -5.5183   -7.0276 H         1 <0>         0.1243
     77 H38        -5.0973   -5.6917   -5.4618 H         1 <0>         0.1244
@<TRIPOS>BOND
     1    1    2 1
     2    1   41 1
     3    1   42 1
     4    1   43 1
     5    2    7 ar
     6    2    3 ar
     7    3    4 ar
     8    3   44 1
     9    4    5 ar
    10    4   45 1
    11    5    6 ar
    12    5    8 1
    13    6    7 ar
    14    6   46 1
    15    7   47 1
    16    8    9 1
    17    8   48 1
    18    8   49 1
    19    9   10 1
    20    9   22 am
    21   10   11 1
    22   10   50 1
    23   10   51 1
    24   11   12 1
    25   11   52 1
    26   11   53 1
    27   12   17 1
    28   12   13 2
    29   13   14 1
    30   13   54 1
    31   14   15 1
    32   14   16 1
    33   16   21 ar
    34   16   17 ar
    35   17   18 ar
    36   18   19 ar
    37   18   55 1
    38   19   20 ar
    39   19   56 1
    40   20   21 ar
    41   20   57 1
    42   21   58 1
    43   22   23 2
    44   22   24 1
    45   24   25 1
    46   24   59 1
    47   24   60 1
    48   25   26 1
    49   25   31 am
    50   26   27 1
    51   26   61 1
    52   26   62 1
    53   27   28 1
    54   27   63 1
    55   27   64 1
    56   28   29 1
    57   28   65 1
    58   28   66 1
    59   29   30 1
    60   30   67 1
    61   30   68 1
    62   30   69 1
    63   31   32 2
    64   31   33 am
    65   33   34 1
    66   33   70 1
    67   34   35 1
    68   34   71 1
    69   34   72 1
    70   35   40 ar
    71   35   36 ar
    72   36   37 ar
    73   36   73 1
    74   37   38 ar
    75   37   74 1
    76   38   39 ar
    77   38   75 1
    78   39   40 ar
    79   39   76 1
    80   40   77 1
@<TRIPOS>MOLECULE
ZINC36145740
   64    66     0     0     0
SMALL
USER_CHARGES

@<TRIPOS>ATOM
      1 C1         -0.6277    2.3094    0.0239 C.3       1 <0>        -0.1525
      2 C2         -0.3689    0.8074   -0.1101 C.3       1 <0>         0.0569
      3 O1         -1.6125    0.1045   -0.0721 O.3       1 <0>        -0.3831
      4 C3         -1.4824   -1.3136   -0.1902 C.3       1 <0>         0.0647
      5 C4         -2.8686   -1.9591   -0.1372 C.3       1 <0>         0.0722
      6 O2         -3.6271   -1.5527   -1.2781 O.3       1 <0>        -0.2657
      7 C5         -4.8905   -2.0406   -1.3843 C.2       1 <0>         0.4143
      8 N1         -5.7396   -1.7770   -2.3772 N.2       1 <0>        -0.5189
      9 C6         -6.8774   -2.4109   -2.1699 C.2       1 <0>         0.3551
     10 N2         -6.7618   -3.1035   -1.0118 N.pl3     1 <0>        -0.3030
     11 N3         -5.4675   -2.8511   -0.5287 N.2       1 <0>        -0.3554
     12 C7         -7.7374   -3.9149   -0.4168 C.ar      1 <0>         0.0737
     13 C8         -8.4914   -4.7807   -1.1984 C.ar      1 <0>        -0.0556
     14 C9         -9.4520   -5.5801   -0.6126 C.ar      1 <0>        -0.1758
     15 C10        -9.6646   -5.5188    0.7589 C.ar      1 <0>         0.2288
     16 C11        -8.9103   -4.6528    1.5405 C.ar      1 <0>        -0.1863
     17 C12        -7.9461   -3.8573    0.9551 C.ar      1 <0>        -0.0468
     18 N4        -10.6377   -6.3281    1.3523 N.pl3     1 <0>        -0.7364
     19 C13       -10.8618   -6.2634    2.7986 C.3       1 <0>         0.0892
     20 C14       -11.9720   -7.2420    3.1870 C.3       1 <0>         0.0962
     21 H1        -11.6774   -8.2542    2.9099 H         1 <0>         0.1062
     22 C15       -12.2060   -7.1744    4.6975 C.3       1 <0>        -0.1447
     23 C16       -13.2265   -8.2395    5.1036 C.3       1 <0>        -0.0903
     24 C17       -13.4571   -8.1729    6.5914 C.2       1 <0>        -0.1603
     25 C18       -14.6714   -8.0256    7.0601 C.2       1 <0>        -0.1903
     26 O3        -13.1764   -6.8921    2.5022 O.3       1 <0>        -0.5560
     27 C19        -8.0681   -2.3723   -3.0464 C.ar      1 <0>        -0.0431
     28 C20        -9.3257   -2.0957   -2.5083 C.ar      1 <0>        -0.0754
     29 C21       -10.4323   -2.0612   -3.3312 C.ar      1 <0>        -0.1253
     30 C22       -10.2975   -2.3006   -4.6873 C.ar      1 <0>        -0.0912
     31 C23        -9.0538   -2.5759   -5.2269 C.ar      1 <0>        -0.1237
     32 C24        -7.9380   -2.6067   -4.4156 C.ar      1 <0>        -0.0314
     33 C25        -6.5829   -2.9000   -5.0061 C.3       1 <0>        -0.1371
     34 H2          0.3209    2.8455   -0.0051 H         1 <0>         0.0719
     35 H3         -1.2595    2.6441   -0.7988 H         1 <0>         0.0646
     36 H4         -1.1288    2.5086    0.9712 H         1 <0>         0.0625
     37 H5          0.1323    0.6082   -1.0573 H         1 <0>         0.0503
     38 H6          0.2630    0.4727    0.7126 H         1 <0>         0.0488
     39 H7         -1.0044   -1.5569   -1.1391 H         1 <0>         0.0638
     40 H8         -0.8737   -1.6923    0.6309 H         1 <0>         0.0771
     41 H9         -2.7644   -3.0441   -0.1379 H         1 <0>         0.0841
     42 H10        -3.3817   -1.6439    0.7713 H         1 <0>         0.0772
     43 H11        -8.3264   -4.8281   -2.2647 H         1 <0>         0.1287
     44 H12       -10.0385   -6.2531   -1.2205 H         1 <0>         0.1326
     45 H13        -9.0756   -4.6047    2.6067 H         1 <0>         0.1300
     46 H14        -7.3569   -3.1870    1.5633 H         1 <0>         0.1312
     47 H15       -11.1646   -6.9326    0.8065 H         1 <0>         0.4070
     48 H16        -9.9431   -6.5303    3.3210 H         1 <0>         0.0715
     49 H17       -11.1564   -5.2512    3.0757 H         1 <0>         0.0655
     50 H18       -11.2660   -7.3542    5.2192 H         1 <0>         0.0768
     51 H19       -12.5857   -6.1876    4.9625 H         1 <0>         0.0711
     52 H20       -14.1665   -8.0597    4.5819 H         1 <0>         0.0744
     53 H21       -12.8468   -9.2263    4.8386 H         1 <0>         0.0721
     54 H22       -12.6211   -8.2467    7.2712 H         1 <0>         0.1076
     55 H23       -14.8367   -7.9779    8.1263 H         1 <0>         0.0973
     56 H24       -15.5074   -7.9518    6.3803 H         1 <0>         0.0967
     57 H25       -13.4979   -6.0022    2.7016 H         1 <0>         0.3776
     58 H26        -9.4324   -1.9094   -1.4498 H         1 <0>         0.1243
     59 H27       -11.4061   -1.8473   -2.9160 H         1 <0>         0.1300
     60 H28       -11.1670   -2.2729   -5.3273 H         1 <0>         0.1289
     61 H29        -8.9553   -2.7622   -6.2861 H         1 <0>         0.1314
     62 H30        -6.4048   -3.9753   -4.9906 H         1 <0>         0.0687
     63 H31        -6.5493   -2.5409   -6.0347 H         1 <0>         0.0726
     64 H32        -5.8144   -2.3960   -4.4200 H         1 <0>         0.0949
@<TRIPOS>BOND
     1    1    2 1
     2    1   34 1
     3    1   35 1
     4    1   36 1
     5    2    3 1
     6    2   37 1
     7    2   38 1
     8    3    4 1
     9    4    5 1
    10    4   39 1
    11    4   40 1
    12    5    6 1
    13    5   41 1
    14    5   42 1
    15    6    7 1
    16    7   11 2
    17    7    8 1
    18    8    9 2
    19    9   10 1
    20    9   27 1
    21   10   11 1
    22   10   12 1
    23   12   17 ar
    24   12   13 ar
    25   13   14 ar
    26   13   43 1
    27   14   15 ar
    28   14   44 1
    29   15   16 ar
    30   15   18 1
    31   16   17 ar
    32   16   45 1
    33   17   46 1
    34   18   19 1
    35   18   47 1
    36   19   20 1
    37   19   48 1
    38   19   49 1
    39   20   21 1
    40   20   22 1
    41   20   26 1
    42   22   23 1
    43   22   50 1
    44   22   51 1
    45   23   24 1
    46   23   52 1
    47   23   53 1
    48   24   25 2
    49   24   54 1
    50   25   55 1
    51   25   56 1
    52   26   57 1
    53   27   32 ar
    54   27   28 ar
    55   28   29 ar
    56   28   58 1
    57   29   30 ar
    58   29   59 1
    59   30   31 ar
    60   30   60 1
    61   31   32 ar
    62   31   61 1
    63   32   33 1
    64   33   62 1
    65   33   63 1
    66   33   64 1
@<TRIPOS>MOLECULE
ZINC19357224
   63    63     0     0     0
SMALL
USER_CHARGES

@<TRIPOS>ATOM
      1 C1         -0.8452    2.5340    0.1661 C.3       1 <0>        -0.1659
      2 C2         -0.5727    1.0285    0.1791 C.3       1 <0>         0.1436
      3 H1          0.0433    0.7634   -0.6801 H         1 <0>         0.0913
      4 C3          0.1617    0.6542    1.4681 C.3       1 <0>        -0.1284
      5 C4          0.5443   -0.8265    1.4255 C.3       1 <0>        -0.1219
      6 C5          1.2787   -1.2008    2.7144 C.3       1 <0>        -0.1155
      7 C6          1.6614   -2.6816    2.6718 C.3       1 <0>        -0.0977
      8 C7          2.6725   -2.9149    1.5475 C.3       1 <0>        -0.1505
      9 C8          2.2838   -3.0862    4.0097 C.3       1 <0>        -0.1493
     10 N1         -1.8430    0.3018    0.1122 N.am      1 <0>        -0.7208
     11 C9         -2.4170    0.0567   -1.0823 C.2       1 <0>         0.5167
     12 O1         -1.8820    0.4379   -2.1019 O.2       1 <0>        -0.5116
     13 C10        -3.7237   -0.6908   -1.1512 C.3       1 <0>         0.0414
     14 O2         -4.1249   -0.8241   -2.5162 O.3       1 <0>        -0.3175
     15 C11        -5.2772   -1.4708   -2.7524 C.2       1 <0>         0.4483
     16 O3         -5.9238   -1.9092   -1.8306 O.2       1 <0>        -0.4877
     17 C12        -5.7645   -1.6500   -4.1671 C.3       1 <0>         0.1713
     18 H2         -5.0252   -2.2124   -4.7375 H         1 <0>         0.1317
     19 C13        -5.9713   -0.2784   -4.8129 C.3       1 <0>        -0.0941
     20 C14        -4.6211    0.4269   -4.9557 C.3       1 <0>        -0.1602
     21 C15        -6.6029   -0.4556   -6.1952 C.3       1 <0>        -0.1508
     22 N2         -7.0336   -2.3816   -4.1575 N.pl3     1 <0>        -1.0933
     23 S1         -7.1172   -3.9032   -4.8058 S.o2      1 <0>         2.6909
     24 O4         -8.4618   -4.3366   -4.6526 O.2       1 <0>        -0.9474
     25 O5         -6.4766   -3.8406   -6.0726 O.2       1 <0>        -0.9446
     26 C16        -6.1305   -4.9554   -3.7939 C.ar      1 <0>        -0.6802
     27 C17        -4.7880   -5.1254   -4.0762 C.ar      1 <0>        -0.0275
     28 C18        -4.0139   -5.9509   -3.2824 C.ar      1 <0>        -0.1394
     29 C19        -4.5822   -6.6061   -2.2060 C.ar      1 <0>        -0.0610
     30 C20        -5.9245   -6.4355   -1.9232 C.ar      1 <0>        -0.1382
     31 C21        -6.6976   -5.6066   -2.7144 C.ar      1 <0>        -0.0109
     32 H3          0.0999    3.0747    0.2159 H         1 <0>         0.0684
     33 H4         -1.3684    2.8006   -0.7522 H         1 <0>         0.0620
     34 H5         -1.4612    2.7992    1.0254 H         1 <0>         0.0577
     35 H6          1.0631    1.2599    1.5616 H         1 <0>         0.0816
     36 H7         -0.4891    0.8369    2.3232 H         1 <0>         0.0693
     37 H8         -0.3571   -1.4322    1.3319 H         1 <0>         0.0608
     38 H9          1.1951   -1.0092    0.5704 H         1 <0>         0.0667
     39 H10         2.1801   -0.5952    2.8080 H         1 <0>         0.0630
     40 H11         0.6279   -1.0182    3.5696 H         1 <0>         0.0614
     41 H12         0.7702   -3.2820    2.4894 H         1 <0>         0.0672
     42 H13         2.9451   -3.9698    1.5172 H         1 <0>         0.0528
     43 H14         2.2291   -2.6266    0.5945 H         1 <0>         0.0561
     44 H15         3.5637   -2.3144    1.7300 H         1 <0>         0.0544
     45 H16         1.5635   -2.9200    4.8106 H         1 <0>         0.0535
     46 H17         2.5564   -4.1411    3.9793 H         1 <0>         0.0540
     47 H18         3.1750   -2.4857    4.1921 H         1 <0>         0.0544
     48 H19        -2.2709   -0.0031    0.9276 H         1 <0>         0.4014
     49 H20        -3.6000   -1.6801   -0.7107 H         1 <0>         0.0987
     50 H21        -4.4866   -0.1407   -0.6003 H         1 <0>         0.1001
     51 H22        -6.6306    0.3224   -4.1865 H         1 <0>         0.0826
     52 H23        -3.9618   -0.1740   -5.5821 H         1 <0>         0.0631
     53 H24        -4.7684    1.4040   -5.4157 H         1 <0>         0.0652
     54 H25        -4.1711    0.5530   -3.9709 H         1 <0>         0.0819
     55 H26        -7.6065   -0.8667   -6.0861 H         1 <0>         0.0571
     56 H27        -6.6586    0.5111   -6.6957 H         1 <0>         0.0668
     57 H28        -5.9935   -1.1373   -6.7884 H         1 <0>         0.0700
     58 H29        -7.8251   -1.9748   -3.7715 H         1 <0>         0.4275
     59 H30        -4.3440   -4.6134   -4.9171 H         1 <0>         0.1398
     60 H31        -2.9652   -6.0842   -3.5033 H         1 <0>         0.1345
     61 H32        -3.9776   -7.2516   -1.5862 H         1 <0>         0.1322
     62 H33        -6.3686   -6.9477   -1.0824 H         1 <0>         0.1345
     63 H34        -7.7455   -5.4703   -2.4913 H         1 <0>         0.1407
@<TRIPOS>BOND
     1    1    2 1
     2    1   32 1
     3    1   33 1
     4    1   34 1
     5    2    3 1
     6    2    4 1
     7    2   10 1
     8    4    5 1
     9    4   35 1
    10    4   36 1
    11    5    6 1
    12    5   37 1
    13    5   38 1
    14    6    7 1
    15    6   39 1
    16    6   40 1
    17    7    8 1
    18    7    9 1
    19    7   41 1
    20    8   42 1
    21    8   43 1
    22    8   44 1
    23    9   45 1
    24    9   46 1
    25    9   47 1
    26   10   11 am
    27   10   48 1
    28   11   12 2
    29   11   13 1
    30   13   14 1
    31   13   49 1
    32   13   50 1
    33   14   15 1
    34   15   16 2
    35   15   17 1
    36   17   18 1
    37   17   19 1
    38   17   22 1
    39   19   20 1
    40   19   21 1
    41   19   51 1
    42   20   52 1
    43   20   53 1
    44   20   54 1
    45   21   55 1
    46   21   56 1
    47   21   57 1
    48   22   23 1
    49   22   58 1
    50   23   24 2
    51   23   25 2
    52   23   26 1
    53   26   31 ar
    54   26   27 ar
    55   27   28 ar
    56   27   59 1
    57   28   29 ar
    58   28   60 1
    59   29   30 ar
    60   29   61 1
    61   30   31 ar
    62   30   62 1
    63   31   63 1
@<TRIPOS>MOLECULE
ZINC58895171
   63    64     0     0     0
SMALL
USER_CHARGES

@<TRIPOS>ATOM
      1 C1          1.3574    1.2333   -0.0937 C.3       1 <0>        -0.1535
      2 C2          1.4611   -0.2803   -0.2918 C.3       1 <0>         0.0539
      3 O1          1.5862   -0.5708   -1.6853 O.3       1 <0>        -0.3159
      4 C3          1.6898   -1.8798   -2.0358 C.ar      1 <0>         0.1332
      5 C4          1.6657   -2.8646   -1.0590 C.ar      1 <0>        -0.2067
      6 C5          1.7707   -4.1945   -1.4178 C.ar      1 <0>        -0.0674
      7 C6          1.9002   -4.5443   -2.7492 C.ar      1 <0>        -0.1563
      8 C7          1.9250   -3.5647   -3.7246 C.ar      1 <0>        -0.0696
      9 C8          1.8141   -2.2337   -3.3714 C.ar      1 <0>        -0.1484
     10 C9          2.0150   -5.9958   -3.1379 C.3       1 <0>         0.1541
     11 H1          2.3305   -6.5796   -2.2731 H         1 <0>         0.1078
     12 C10         0.6565   -6.5019   -3.6268 C.3       1 <0>        -0.1319
     13 C11         0.7412   -8.0044   -3.9031 C.3       1 <0>        -0.1333
     14 C12        -0.5969   -8.5028   -4.3847 C.2       1 <0>         0.5217
     15 O2         -1.5271   -7.7321   -4.4960 O.2       1 <0>        -0.5003
     16 N1         -0.7603   -9.8050   -4.6917 N.am      1 <0>        -0.5903
     17 N2         -2.0043  -10.2684   -5.1394 N.2       1 <0>        -0.2310
     18 C13        -2.1959  -11.5389   -5.3225 C.2       1 <0>         0.1194
     19 C14        -1.3327  -12.5203   -4.6407 C.ar      1 <0>        -0.1346
     20 C15        -0.5035  -12.1148   -3.5912 C.ar      1 <0>        -0.0952
     21 C16         0.3016  -13.0355   -2.9570 C.ar      1 <0>        -0.2006
     22 C17         0.2901  -14.3652   -3.3591 C.ar      1 <0>         0.1471
     23 C18        -0.5318  -14.7726   -4.4017 C.ar      1 <0>        -0.0958
     24 C19        -1.3452  -13.8598   -5.0379 C.ar      1 <0>        -0.0421
     25 C20        -0.5390  -16.2163   -4.8340 C.3       1 <0>        -0.0501
     26 C21        -1.4946  -16.9954   -3.9674 C.2       1 <0>        -0.1439
     27 C22        -2.4565  -17.6942   -4.5173 C.2       1 <0>        -0.1921
     28 O3          1.0857  -15.2695   -2.7308 O.3       1 <0>        -0.2864
     29 C23         1.9065  -14.7830   -1.6671 C.3       1 <0>         0.0662
     30 C24         2.7130  -15.9200   -1.0946 C.2       1 <0>         0.4610
     31 O4          2.5968  -17.0328   -1.5507 O.2       1 <0>        -0.4774
     32 O5          3.5604  -15.6965   -0.0779 O.3       1 <0>        -0.3495
     33 C25         4.2927  -16.8202    0.4152 C.3       1 <0>         0.0345
     34 O6          2.9793   -6.1341   -4.1834 O.3       1 <0>        -0.5550
     35 H2          2.2540    1.7133   -0.4859 H         1 <0>         0.0670
     36 H3          0.4824    1.6099   -0.6233 H         1 <0>         0.0671
     37 H4          1.2620    1.4549    0.9693 H         1 <0>         0.0796
     38 H5          2.3362   -0.6569    0.2379 H         1 <0>         0.0625
     39 H6          0.5646   -0.7603    0.1004 H         1 <0>         0.0626
     40 H7          1.5653   -2.5918   -0.0188 H         1 <0>         0.1291
     41 H8          1.7519   -4.9615   -0.6578 H         1 <0>         0.1263
     42 H9          2.0266   -3.8404   -4.7639 H         1 <0>         0.1274
     43 H10         1.8291   -1.4691   -4.1340 H         1 <0>         0.1325
     44 H11        -0.0975   -6.3150   -2.8622 H         1 <0>         0.0841
     45 H12         0.3822   -5.9789   -4.5430 H         1 <0>         0.0791
     46 H13         1.4952   -8.1912   -4.6677 H         1 <0>         0.1062
     47 H14         1.0155   -8.5273   -2.9869 H         1 <0>         0.0974
     48 H15        -0.0165  -10.4213   -4.6027 H         1 <0>         0.3944
     49 H16        -2.9878  -11.8771   -5.9743 H         1 <0>         0.1870
     50 H17        -0.4937  -11.0812   -3.2782 H         1 <0>         0.1390
     51 H18         0.9429  -12.7230   -2.1461 H         1 <0>         0.1368
     52 H19        -1.9879  -14.1785   -5.8452 H         1 <0>         0.1425
     53 H20        -0.8561  -16.2823   -5.8748 H         1 <0>         0.0803
     54 H21         0.4639  -16.6309   -4.7327 H         1 <0>         0.0904
     55 H22        -1.3863  -16.9775   -2.8929 H         1 <0>         0.1078
     56 H23        -2.5647  -17.7121   -5.5917 H         1 <0>         0.0974
     57 H24        -3.1413  -18.2525   -3.8962 H         1 <0>         0.0982
     58 H25         2.5801  -14.0162   -2.0495 H         1 <0>         0.1105
     59 H26         1.2755  -14.3564   -0.8873 H         1 <0>         0.1099
     60 H27         4.9388  -16.5021    1.2335 H         1 <0>         0.1085
     61 H28         3.5967  -17.5779    0.7753 H         1 <0>         0.0646
     62 H29         4.9013  -17.2377   -0.3869 H         1 <0>         0.0648
     63 H30         2.7628   -5.6401   -4.9860 H         1 <0>         0.3755
@<TRIPOS>BOND
     1    1    2 1
     2    1   35 1
     3    1   36 1
     4    1   37 1
     5    2    3 1
     6    2   38 1
     7    2   39 1
     8    3    4 1
     9    4    9 ar
    10    4    5 ar
    11    5    6 ar
    12    5   40 1
    13    6    7 ar
    14    6   41 1
    15    7    8 ar
    16    7   10 1
    17    8    9 ar
    18    8   42 1
    19    9   43 1
    20   10   11 1
    21   10   12 1
    22   10   34 1
    23   12   13 1
    24   12   44 1
    25   12   45 1
    26   13   14 1
    27   13   46 1
    28   13   47 1
    29   14   15 2
    30   14   16 am
    31   16   17 1
    32   16   48 1
    33   17   18 2
    34   18   19 1
    35   18   49 1
    36   19   24 ar
    37   19   20 ar
    38   20   21 ar
    39   20   50 1
    40   21   22 ar
    41   21   51 1
    42   22   23 ar
    43   22   28 1
    44   23   24 ar
    45   23   25 1
    46   24   52 1
    47   25   26 1
    48   25   53 1
    49   25   54 1
    50   26   27 2
    51   26   55 1
    52   27   56 1
    53   27   57 1
    54   28   29 1
    55   29   30 1
    56   29   58 1
    57   29   59 1
    58   30   31 2
    59   30   32 1
    60   32   33 1
    61   33   60 1
    62   33   61 1
    63   33   62 1
    64   34   63 1
@<TRIPOS>MOLECULE
ZINC01699496
   60    61     0     0     0
SMALL
USER_CHARGES
[2-[4-[2-[4-(2-acetoxyacetyl)phenyl]-1-ethyl-but-1-enyl]phenyl]-2-oxo-ethyl] acetate
@<TRIPOS>ATOM
      1 C1         -7.7024    4.6380    1.8410 C.3       1 <0>        -0.1480
      2 C2         -6.6510    5.4830    1.1188 C.3       1 <0>        -0.0866
      3 C3         -5.3358    4.7473    1.1087 C.2       1 <0>        -0.0762
      4 C4         -4.9942    3.9943    0.0468 C.2       1 <0>        -0.0761
      5 C5         -5.9269    3.8867   -1.1320 C.3       1 <0>        -0.0866
      6 C6         -5.5279    4.9140   -2.1933 C.3       1 <0>        -0.1479
      7 C7         -3.7102    3.2760    0.0369 C.ar      1 <0>        -0.0024
      8 C8         -3.6914    1.8762    0.0297 C.ar      1 <0>        -0.1206
      9 C9         -2.5003    1.2094    0.0205 C.ar      1 <0>        -0.0499
     10 C10        -1.2968    1.9260    0.0187 C.ar      1 <0>        -0.1693
     11 C11        -1.3160    3.3266    0.0322 C.ar      1 <0>        -0.0700
     12 C12        -2.5075    3.9926    0.0351 C.ar      1 <0>        -0.1131
     13 C13        -0.0144    1.2087    0.0087 C.2       1 <0>         0.3956
     14 O1          0.0021   -0.0041    0.0020 O.2       1 <0>        -0.4241
     15 C14         1.2803    1.9799    0.0005 C.3       1 <0>         0.0333
     16 O2          2.3966    1.0514   -0.0152 O.3       1 <0>        -0.3410
     17 C15         3.6299    1.5813   -0.0241 C.2       1 <0>         0.4604
     18 O3          3.7719    2.7812   -0.0190 O.2       1 <0>        -0.5118
     19 C16         4.8373    0.6797   -0.0405 C.3       1 <0>        -0.1465
     20 C17        -4.4252    4.8522    2.2595 C.ar      1 <0>        -0.0023
     21 C18        -4.1473    3.7219    3.0374 C.ar      1 <0>        -0.1131
     22 C19        -3.2987    3.8178    4.1023 C.ar      1 <0>        -0.0700
     23 C20        -2.7145    5.0498    4.4232 C.ar      1 <0>        -0.1692
     24 C21        -2.9970    6.1816    3.6479 C.ar      1 <0>        -0.0499
     25 C22        -3.8415    6.0837    2.5800 C.ar      1 <0>        -0.1207
     26 C23        -1.8050    5.1546    5.5727 C.2       1 <0>         0.3956
     27 O4         -1.2989    6.2213    5.8502 O.2       1 <0>        -0.4240
     28 C24        -1.5012    3.9367    6.4067 C.3       1 <0>         0.0330
     29 O5         -0.5847    4.2971    7.4736 O.3       1 <0>        -0.3407
     30 C25        -0.2112    3.3183    8.3127 C.2       1 <0>         0.4606
     31 O6         -0.6361    2.1974    8.1607 O.2       1 <0>        -0.5123
     32 C26         0.7380    3.6173    9.4444 C.3       1 <0>        -0.1464
     33 H1         -7.8223    3.6865    1.3229 H         1 <0>         0.0571
     34 H2         -7.3803    4.4554    2.8662 H         1 <0>         0.0563
     35 H3         -8.6537    5.1701    1.8484 H         1 <0>         0.0606
     36 H4         -6.5310    6.4344    1.6369 H         1 <0>         0.0743
     37 H5         -6.9731    5.6655    0.0937 H         1 <0>         0.0807
     38 H6         -5.8638    2.8841   -1.5549 H         1 <0>         0.0743
     39 H7         -6.9488    4.0797   -0.8055 H         1 <0>         0.0807
     40 H8         -6.2025    4.8362   -3.0460 H         1 <0>         0.0606
     41 H9         -5.5910    5.9166   -1.7704 H         1 <0>         0.0571
     42 H10        -4.5060    4.7210   -2.5198 H         1 <0>         0.0563
     43 H11        -4.6194    1.3237    0.0311 H         1 <0>         0.1325
     44 H12        -2.4859    0.1295    0.0149 H         1 <0>         0.1374
     45 H13        -0.3882    3.8794    0.0356 H         1 <0>         0.1314
     46 H14        -2.5224    5.0725    0.0403 H         1 <0>         0.1296
     47 H15         1.3176    2.5599   -0.8133 H         1 <0>         0.0939
     48 H16         1.3381    2.6025    0.8933 H         1 <0>         0.1058
     49 H17         4.8124    0.0554   -0.9336 H         1 <0>         0.1030
     50 H18         5.7432    1.2857   -0.0459 H         1 <0>         0.1046
     51 H19         4.8294    0.0458    0.8462 H         1 <0>         0.1031
     52 H20        -4.6011    2.7730    2.7923 H         1 <0>         0.1295
     53 H21        -3.0812    2.9449    4.6998 H         1 <0>         0.1314
     54 H22        -2.5464    7.1316    3.8948 H         1 <0>         0.1373
     55 H23        -4.0590    6.9563    1.9819 H         1 <0>         0.1325
     56 H24        -2.3493    3.5828    6.8011 H         1 <0>         0.0938
     57 H25        -1.0452    3.1711    5.7790 H         1 <0>         0.1060
     58 H26         0.1699    3.9087   10.3278 H         1 <0>         0.1078
     59 H27         1.3276    2.7283    9.6685 H         1 <0>         0.1059
     60 H28         1.4031    4.4310    9.1553 H         1 <0>         0.0969
@<TRIPOS>BOND
     1    1    2 1
     2    1   33 1
     3    1   34 1
     4    1   35 1
     5    2    3 1
     6    2   36 1
     7    2   37 1
     8    3    4 2
     9    3   20 1
    10    4    5 1
    11    4    7 1
    12    5    6 1
    13    5   38 1
    14    5   39 1
    15    6   40 1
    16    6   41 1
    17    6   42 1
    18    7   12 ar
    19    7    8 ar
    20    8    9 ar
    21    8   43 1
    22    9   10 ar
    23    9   44 1
    24   10   11 ar
    25   10   13 1
    26   11   12 ar
    27   11   45 1
    28   12   46 1
    29   13   14 2
    30   13   15 1
    31   15   16 1
    32   15   47 1
    33   15   48 1
    34   16   17 1
    35   17   18 2
    36   17   19 1
    37   19   49 1
    38   19   50 1
    39   19   51 1
    40   20   25 ar
    41   20   21 ar
    42   21   22 ar
    43   21   52 1
    44   22   23 ar
    45   22   53 1
    46   23   24 ar
    47   23   26 1
    48   24   25 ar
    49   24   54 1
    50   25   55 1
    51   26   27 2
    52   26   28 1
    53   28   29 1
    54   28   56 1
    55   28   57 1
    56   29   30 1
    57   30   31 2
    58   30   32 1
    59   32   58 1
    60   32   59 1
    61   32   60 1
@<TRIPOS>MOLECULE
ZINC05337347
   75    74     0     0     0
SMALL
USER_CHARGES
(2S)-2-methyl-1-[1,3,3-tris[(2S)-2-methylbutoxy]propoxy]butane
@<TRIPOS>ATOM
      1 C1          5.1691    0.7659    3.3258 C.3       1 <0>        -0.1513
      2 C2          4.3455    1.2523    4.5199 C.3       1 <0>        -0.1173
      3 C3          2.8571    1.1945    4.1703 C.3       1 <0>        -0.0846
      4 H1          2.5989    0.1865    3.8460 H         1 <0>         0.0766
      5 C4          2.5593    2.1850    3.0429 C.3       1 <0>        -0.1432
      6 C5          2.0290    1.5613    5.4035 C.3       1 <0>         0.0740
      7 O1          0.6387    1.4353    5.0983 O.3       1 <0>        -0.3753
      8 C6         -0.2285    1.8742    6.1459 C.3       1 <0>         0.2534
      9 C7          0.1005    1.1141    7.4323 C.3       1 <0>        -0.1287
     10 C8         -0.2383   -0.3668    7.2506 C.3       1 <0>         0.2557
     11 O2          0.5629   -0.9135    6.2013 O.3       1 <0>        -0.3680
     12 C9         -0.0311   -2.0316    5.5387 C.3       1 <0>         0.0533
     13 C10         0.9645   -2.6181    4.5359 C.3       1 <0>        -0.0858
     14 H2          1.2719   -1.8433    3.8335 H         1 <0>         0.0805
     15 C11         2.1912   -3.1445    5.2836 C.3       1 <0>        -0.1436
     16 C12         0.3020   -3.7659    3.7713 C.3       1 <0>        -0.1186
     17 C13         1.2529   -4.2705    2.6841 C.3       1 <0>        -0.1524
     18 O3          0.0262   -1.0687    8.4669 O.3       1 <0>        -0.3856
     19 C14        -0.4243   -2.4248    8.4652 C.3       1 <0>         0.0598
     20 C15        -0.2497   -3.0220    9.8629 C.3       1 <0>        -0.0909
     21 H3          0.7872   -2.9089   10.1794 H         1 <0>         0.0797
     22 C16        -1.1659   -2.2924   10.8474 C.3       1 <0>        -0.1464
     23 C17        -0.6143   -4.5076    9.8320 C.3       1 <0>        -0.1184
     24 C18        -0.3214   -5.1332   11.1972 C.3       1 <0>        -0.1532
     25 O4         -0.0454    3.2751    6.3602 O.3       1 <0>        -0.3942
     26 C19        -0.5883    4.0973    5.3251 C.3       1 <0>         0.0698
     27 C20        -0.2304    5.5601    5.5953 C.3       1 <0>        -0.0900
     28 H4         -0.5682    5.8384    6.5936 H         1 <0>         0.0772
     29 C21         1.2861    5.7398    5.5015 C.3       1 <0>        -0.1441
     30 C22        -0.9149    6.4525    4.5580 C.3       1 <0>        -0.1183
     31 C23        -0.6594    7.9215    4.9010 C.3       1 <0>        -0.1532
     32 H5          4.9731    1.4050    2.4648 H         1 <0>         0.0560
     33 H6          4.8916   -0.2607    3.0870 H         1 <0>         0.0536
     34 H7          6.2295    0.8071    3.5748 H         1 <0>         0.0532
     35 H8          4.5416    0.6132    5.3809 H         1 <0>         0.0619
     36 H9          4.6231    2.2789    4.7588 H         1 <0>         0.0608
     37 H10         2.9022    3.1785    3.3320 H         1 <0>         0.0494
     38 H11         3.0777    1.8710    2.1370 H         1 <0>         0.0525
     39 H12         1.4856    2.2113    2.8565 H         1 <0>         0.0582
     40 H13         2.2830    0.8907    6.2243 H         1 <0>         0.0558
     41 H14         2.2455    2.5893    5.6939 H         1 <0>         0.0484
     42 H15        -1.2640    1.6818    5.8649 H         1 <0>         0.0936
     43 H16         1.1624    1.2192    7.6549 H         1 <0>         0.0948
     44 H17        -0.4855    1.5226    8.2556 H         1 <0>         0.1003
     45 H18        -1.2927   -0.4694    6.9938 H         1 <0>         0.0519
     46 H19        -0.2961   -2.7911    6.2742 H         1 <0>         0.0535
     47 H20        -0.9286   -1.7070    5.0121 H         1 <0>         0.0473
     48 H21         2.9005   -3.5624    4.5692 H         1 <0>         0.0557
     49 H22         2.6632   -2.3268    5.8283 H         1 <0>         0.0622
     50 H23         1.8838   -3.9193    5.9860 H         1 <0>         0.0483
     51 H24         0.0748   -4.5786    4.4611 H         1 <0>         0.0613
     52 H25        -0.6204   -3.4113    3.3112 H         1 <0>         0.0616
     53 H26         0.7809   -5.0881    2.1394 H         1 <0>         0.0545
     54 H27         1.4801   -3.4577    1.9943 H         1 <0>         0.0548
     55 H28         2.1753   -4.6250    3.1442 H         1 <0>         0.0578
     56 H29        -1.4772   -2.4576    8.1850 H         1 <0>         0.0459
     57 H30         0.1606   -3.0010    7.7482 H         1 <0>         0.0600
     58 H31        -1.0415   -2.7179   11.8432 H         1 <0>         0.0579
     59 H32        -0.9062   -1.2341   10.8694 H         1 <0>         0.0615
     60 H33        -2.2028   -2.4056   10.5309 H         1 <0>         0.0508
     61 H34        -1.6741   -4.6169    9.6020 H         1 <0>         0.0628
     62 H35        -0.0228   -5.0110    9.0672 H         1 <0>         0.0624
     63 H36         0.7384   -5.0239   11.4271 H         1 <0>         0.0552
     64 H37        -0.9129   -4.6298   11.9619 H         1 <0>         0.0583
     65 H38        -0.5811   -6.1916   11.1751 H         1 <0>         0.0555
     66 H39        -0.1732    3.7932    4.3643 H         1 <0>         0.0575
     67 H40        -1.6724    3.9864    5.3041 H         1 <0>         0.0471
     68 H41         1.5411    6.7819    5.6939 H         1 <0>         0.0560
     69 H42         1.7737    5.1040    6.2404 H         1 <0>         0.0596
     70 H43         1.6239    5.4615    4.5032 H         1 <0>         0.0519
     71 H44        -0.5118    6.2350    3.5689 H         1 <0>         0.0636
     72 H45        -1.9876    6.2594    4.5637 H         1 <0>         0.0622
     73 H46        -1.0624    8.1391    5.8901 H         1 <0>         0.0545
     74 H47         0.4134    8.1147    4.8953 H         1 <0>         0.0580
     75 H48        -1.1470    8.5573    4.1621 H         1 <0>         0.0550
@<TRIPOS>BOND
     1    1    2 1
     2    1   32 1
     3    1   33 1
     4    1   34 1
     5    2    3 1
     6    2   35 1
     7    2   36 1
     8    3    4 1
     9    3    5 1
    10    3    6 1
    11    5   37 1
    12    5   38 1
    13    5   39 1
    14    6    7 1
    15    6   40 1
    16    6   41 1
    17    7    8 1
    18    8    9 1
    19    8   25 1
    20    8   42 1
    21    9   10 1
    22    9   43 1
    23    9   44 1
    24   10   11 1
    25   10   18 1
    26   10   45 1
    27   11   12 1
    28   12   13 1
    29   12   46 1
    30   12   47 1
    31   13   14 1
    32   13   15 1
    33   13   16 1
    34   15   48 1
    35   15   49 1
    36   15   50 1
    37   16   17 1
    38   16   51 1
    39   16   52 1
    40   17   53 1
    41   17   54 1
    42   17   55 1
    43   18   19 1
    44   19   20 1
    45   19   56 1
    46   19   57 1
    47   20   21 1
    48   20   22 1
    49   20   23 1
    50   22   58 1
    51   22   59 1
    52   22   60 1
    53   23   24 1
    54   23   61 1
    55   23   62 1
    56   24   63 1
    57   24   64 1
    58   24   65 1
    59   25   26 1
    60   26   27 1
    61   26   66 1
    62   26   67 1
    63   27   28 1
    64   27   29 1
    65   27   30 1
    66   29   68 1
    67   29   69 1
    68   29   70 1
    69   30   31 1
    70   30   71 1
    71   30   72 1
    72   31   73 1
    73   31   74 1
    74   31   75 1
@<TRIPOS>MOLECULE
ZINC35004037
   71    72     0     0     0
SMALL
USER_CHARGES

@<TRIPOS>ATOM
      1 C1         -0.0957    0.4440   -2.5110 C.3       1 <0>        -0.1537
      2 C2         -0.1681   -1.0780   -2.3723 C.3       1 <0>        -0.1260
      3 C3         -1.6033   -1.4922   -2.0413 C.3       1 <0>        -0.1201
      4 C4         -1.6757   -3.0142   -1.9026 C.3       1 <0>        -0.1059
      5 C5         -3.1109   -3.4285   -1.5717 C.3       1 <0>        -0.1393
      6 C6         -3.1822   -4.9276   -1.4351 C.2       1 <0>         0.5140
      7 O1         -2.1835   -5.5986   -1.5875 O.2       1 <0>        -0.5380
      8 N1         -4.3559   -5.5226   -1.1436 N.am      1 <0>        -0.6185
      9 C7         -5.5801   -4.7282   -0.9608 C.3       1 <0>         0.1123
     10 C8         -6.2295   -5.1333    0.3668 C.3       1 <0>         0.0412
     11 N2         -6.4246   -6.5891    0.3887 N.3       1 <0>        -0.5342
     12 C9         -5.1404   -7.2998    0.3293 C.3       1 <0>         0.0389
     13 C10        -4.4476   -6.9840   -1.0058 C.3       1 <0>         0.1164
     14 C11        -7.1990   -6.9987    1.5679 C.3       1 <0>         0.0423
     15 C12        -7.5949   -8.4704    1.4320 C.3       1 <0>         0.1176
     16 N3         -8.3671   -8.8789    2.6080 N.am      1 <0>        -0.6104
     17 C13        -9.8256   -8.7407    2.6108 C.3       1 <0>         0.1495
     18 C14       -10.4451   -9.9407    1.9420 C.ar      1 <0>        -0.1224
     19 C15       -10.5535   -9.9844    0.5645 C.ar      1 <0>        -0.0731
     20 C16       -11.1210  -11.0845   -0.0500 C.ar      1 <0>        -0.1520
     21 C17       -11.5813  -12.1431    0.7146 C.ar      1 <0>         0.1048
     22 C18       -11.4722  -12.0982    2.0942 C.ar      1 <0>        -0.1523
     23 C19       -10.8995  -10.9994    2.7061 C.ar      1 <0>        -0.0806
     24 F1        -12.1367  -13.2189    0.1150 F         1 <0>        -0.1374
     25 C20        -7.7358   -9.3819    3.6873 C.2       1 <0>         0.5158
     26 O2         -6.5238   -9.4113    3.7220 O.2       1 <0>        -0.5308
     27 C21        -8.5359   -9.9078    4.8511 C.3       1 <0>        -0.1462
     28 C22        -7.5887  -10.5124    5.8895 C.3       1 <0>        -0.1059
     29 C23        -8.4009  -11.0463    7.0710 C.3       1 <0>        -0.1202
     30 C24        -7.4537  -11.6509    8.1094 C.3       1 <0>        -0.1259
     31 C25        -8.2660  -12.1848    9.2909 C.3       1 <0>        -0.1538
     32 H1          0.9268    0.7391   -2.7468 H         1 <0>         0.0540
     33 H2         -0.7611    0.7680   -3.3112 H         1 <0>         0.0534
     34 H3         -0.4012    0.9092   -1.5737 H         1 <0>         0.0532
     35 H4          0.1373   -1.5432   -3.3095 H         1 <0>         0.0622
     36 H5          0.4973   -1.4020   -1.5721 H         1 <0>         0.0618
     37 H6         -1.9088   -1.0271   -1.1041 H         1 <0>         0.0616
     38 H7         -2.2687   -1.1682   -2.8415 H         1 <0>         0.0622
     39 H8         -1.3703   -3.4794   -2.8399 H         1 <0>         0.0700
     40 H9         -1.0103   -3.3382   -1.1024 H         1 <0>         0.0692
     41 H10        -3.4164   -2.9633   -0.6344 H         1 <0>         0.0918
     42 H11        -3.7763   -3.1045   -2.3719 H         1 <0>         0.0935
     43 H12        -5.3284   -3.6679   -0.9368 H         1 <0>         0.0906
     44 H13        -6.2703   -4.9251   -1.7811 H         1 <0>         0.0797
     45 H14        -5.5814   -4.8407    1.1929 H         1 <0>         0.0402
     46 H15        -7.1940   -4.6354    0.4667 H         1 <0>         0.0894
     47 H16        -4.5075   -6.9770    1.1560 H         1 <0>         0.0417
     48 H17        -5.3151   -8.3732    0.4020 H         1 <0>         0.0905
     49 H18        -5.0310   -7.3936   -1.8304 H         1 <0>         0.0757
     50 H19        -3.4468   -7.4159   -1.0117 H         1 <0>         0.0962
     51 H20        -6.5931   -6.8667    2.4643 H         1 <0>         0.0415
     52 H21        -8.0975   -6.3863    1.6433 H         1 <0>         0.0772
     53 H22        -8.2008   -8.6024    0.5356 H         1 <0>         0.0862
     54 H23        -6.6963   -9.0828    1.3566 H         1 <0>         0.0843
     55 H24       -10.1822   -8.6732    3.6386 H         1 <0>         0.0940
     56 H25       -10.1060   -7.8376    2.0688 H         1 <0>         0.0930
     57 H26       -10.1947   -9.1584   -0.0317 H         1 <0>         0.1340
     58 H27       -11.2059  -11.1182   -1.1261 H         1 <0>         0.1376
     59 H28       -11.8311  -12.9233    2.6916 H         1 <0>         0.1376
     60 H29       -10.8103  -10.9661    3.7819 H         1 <0>         0.1342
     61 H30        -9.0981   -9.0912    5.3041 H         1 <0>         0.0947
     62 H31        -9.2271  -10.6740    4.5002 H         1 <0>         0.0945
     63 H32        -7.0264  -11.3290    5.4365 H         1 <0>         0.0688
     64 H33        -6.8974   -9.7462    6.2404 H         1 <0>         0.0704
     65 H34        -8.9631  -10.2297    7.5240 H         1 <0>         0.0623
     66 H35        -9.0922  -11.8125    6.7201 H         1 <0>         0.0619
     67 H36        -6.8915  -12.4675    7.6564 H         1 <0>         0.0619
     68 H37        -6.7625  -10.8847    8.4603 H         1 <0>         0.0619
     69 H38        -7.5912  -12.6156   10.0307 H         1 <0>         0.0540
     70 H39        -8.8282  -11.3682    9.7439 H         1 <0>         0.0534
     71 H40        -8.9572  -12.9511    8.9400 H         1 <0>         0.0534
@<TRIPOS>BOND
     1    1    2 1
     2    1   32 1
     3    1   33 1
     4    1   34 1
     5    2    3 1
     6    2   35 1
     7    2   36 1
     8    3    4 1
     9    3   37 1
    10    3   38 1
    11    4    5 1
    12    4   39 1
    13    4   40 1
    14    5    6 1
    15    5   41 1
    16    5   42 1
    17    6    7 2
    18    6    8 am
    19    8   13 1
    20    8    9 1
    21    9   10 1
    22    9   43 1
    23    9   44 1
    24   10   11 1
    25   10   45 1
    26   10   46 1
    27   11   12 1
    28   11   14 1
    29   12   13 1
    30   12   47 1
    31   12   48 1
    32   13   49 1
    33   13   50 1
    34   14   15 1
    35   14   51 1
    36   14   52 1
    37   15   16 1
    38   15   53 1
    39   15   54 1
    40   16   17 1
    41   16   25 am
    42   17   18 1
    43   17   55 1
    44   17   56 1
    45   18   23 ar
    46   18   19 ar
    47   19   20 ar
    48   19   57 1
    49   20   21 ar
    50   20   58 1
    51   21   22 ar
    52   21   24 1
    53   22   23 ar
    54   22   59 1
    55   23   60 1
    56   25   26 2
    57   25   27 1
    58   27   28 1
    59   27   61 1
    60   27   62 1
    61   28   29 1
    62   28   63 1
    63   28   64 1
    64   29   30 1
    65   29   65 1
    66   29   66 1
    67   30   31 1
    68   30   67 1
    69   30   68 1
    70   31   69 1
    71   31   70 1
    72   31   71 1
@<TRIPOS>MOLECULE
ZINC40950064
   65    66     0     0     0
SMALL
USER_CHARGES

@<TRIPOS>ATOM
      1 C1          5.7648   -2.8423   -1.1333 C.3       1 <0>        -0.1530
      2 C2          4.3227   -3.2765   -0.8635 C.3       1 <0>         0.0495
      3 O1          3.4507   -2.6411   -1.8005 O.3       1 <0>        -0.3055
      4 C3          2.1242   -2.9217   -1.6978 C.ar      1 <0>         0.1293
      5 C4          1.6752   -3.7820   -0.7162 C.ar      1 <0>        -0.1578
      6 C5          0.3066   -4.0687   -0.6137 C.ar      1 <0>        -0.0637
      7 C6         -0.5972   -3.4794   -1.5093 C.ar      1 <0>        -0.1094
      8 C7         -0.1389   -2.6229   -2.4844 C.ar      1 <0>        -0.0790
      9 C8          1.2172   -2.3354   -2.5810 C.ar      1 <0>         0.0828
     10 O2          1.6617   -1.4852   -3.5420 O.3       1 <0>        -0.2861
     11 C9          2.0948   -2.0121   -4.6986 C.2       1 <0>         0.4643
     12 O3          1.9954   -3.2000   -4.8961 O.2       1 <0>        -0.4837
     13 C10         2.7048   -1.1219   -5.7505 C.3       1 <0>        -0.1062
     14 C11         3.1113   -1.9662   -6.9600 C.3       1 <0>        -0.1107
     15 C12         3.7306   -1.0624   -8.0279 C.3       1 <0>         0.0614
     16 O4          4.1103   -1.8510   -9.1576 O.3       1 <0>        -0.3132
     17 C13         4.6803   -1.1966  -10.2033 C.ar      1 <0>         0.1252
     18 C14         4.8756    0.1755  -10.1412 C.ar      1 <0>        -0.2062
     19 C15         5.4557    0.8384  -11.2053 C.ar      1 <0>        -0.0780
     20 C16         5.8412    0.1356  -12.3319 C.ar      1 <0>        -0.1131
     21 C17         5.6472   -1.2319  -12.3965 C.ar      1 <0>        -0.0748
     22 C18         5.0732   -1.9003  -11.3325 C.ar      1 <0>        -0.1485
     23 C19         6.4733    0.8613  -13.4916 C.3       1 <0>        -0.0536
     24 C20         7.8746    0.3003  -13.7416 C.3       1 <0>        -0.1455
     25 C21         5.6154    0.6672  -14.7435 C.3       1 <0>        -0.1456
     26 C22        -0.1773   -4.9809    0.4249 C.2       1 <0>         0.0793
     27 C23        -1.4346   -4.8082    0.9626 C.2       1 <0>        -0.0967
     28 C24        -2.2097   -3.6553    0.6154 C.1       1 <0>         0.2493
     29 N1         -2.8246   -2.7406    0.3400 N.1       1 <0>        -0.3900
     30 C25        -1.9799   -5.8076    1.8925 C.2       1 <0>         0.5229
     31 O5         -1.3219   -6.7864    2.1872 O.2       1 <0>        -0.4931
     32 O6         -3.2098   -5.6387    2.4184 O.3       1 <0>        -0.3445
     33 C26        -3.6764   -6.6491    3.3148 C.3       1 <0>         0.0612
     34 C27        -5.0798   -6.2872    3.8052 C.3       1 <0>        -0.1545
     35 H1          6.0475   -3.1304   -2.1458 H         1 <0>         0.0674
     36 H2          5.8443   -1.7604   -1.0277 H         1 <0>         0.0685
     37 H3          6.4299   -3.3270   -0.4186 H         1 <0>         0.0831
     38 H4          4.2431   -4.3584   -0.9691 H         1 <0>         0.0674
     39 H5          4.0399   -2.9885    0.1490 H         1 <0>         0.0678
     40 H6          2.3760   -4.2332   -0.0295 H         1 <0>         0.1496
     41 H7         -1.6523   -3.6976   -1.4342 H         1 <0>         0.1394
     42 H8         -0.8358   -2.1698   -3.1739 H         1 <0>         0.1465
     43 H9          1.9762   -0.3722   -6.0591 H         1 <0>         0.1140
     44 H10         3.5850   -0.6262   -5.3411 H         1 <0>         0.1149
     45 H11         3.8399   -2.7159   -6.6514 H         1 <0>         0.0863
     46 H12         2.2311   -2.4619   -7.3694 H         1 <0>         0.0865
     47 H13         3.0020   -0.3127   -8.3365 H         1 <0>         0.0664
     48 H14         4.6108   -0.5667   -7.6185 H         1 <0>         0.0663
     49 H15         4.5740    0.7251   -9.2617 H         1 <0>         0.1272
     50 H16         5.6079    1.9066  -11.1574 H         1 <0>         0.1239
     51 H17         5.9488   -1.7785  -13.2778 H         1 <0>         0.1282
     52 H18         4.9259   -2.9691  -11.3817 H         1 <0>         0.1304
     53 H19         6.5434    1.9242  -13.2603 H         1 <0>         0.0761
     54 H20         7.8045   -0.7626  -13.9728 H         1 <0>         0.0566
     55 H21         8.3318    0.8252  -14.5803 H         1 <0>         0.0581
     56 H22         8.4858    0.4386  -12.8497 H         1 <0>         0.0556
     57 H23         4.6171    1.0669  -14.5654 H         1 <0>         0.0556
     58 H24         6.0727    1.1921  -15.5822 H         1 <0>         0.0581
     59 H25         5.5453   -0.3957  -14.9747 H         1 <0>         0.0566
     60 H26         0.4511   -5.7889    0.7695 H         1 <0>         0.1723
     61 H27        -3.7085   -7.6076    2.7968 H         1 <0>         0.0730
     62 H28        -3.0005   -6.7190    4.1670 H         1 <0>         0.0729
     63 H29        -5.4357   -7.0579    4.4889 H         1 <0>         0.0833
     64 H30        -5.0477   -5.3286    4.3231 H         1 <0>         0.0676
     65 H31        -5.7557   -6.2172    2.9530 H         1 <0>         0.0677
@<TRIPOS>BOND
     1    1    2 1
     2    1   35 1
     3    1   36 1
     4    1   37 1
     5    2    3 1
     6    2   38 1
     7    2   39 1
     8    3    4 1
     9    4    9 ar
    10    4    5 ar
    11    5    6 ar
    12    5   40 1
    13    6    7 ar
    14    6   26 1
    15    7    8 ar
    16    7   41 1
    17    8    9 ar
    18    8   42 1
    19    9   10 1
    20   10   11 1
    21   11   12 2
    22   11   13 1
    23   13   14 1
    24   13   43 1
    25   13   44 1
    26   14   15 1
    27   14   45 1
    28   14   46 1
    29   15   16 1
    30   15   47 1
    31   15   48 1
    32   16   17 1
    33   17   22 ar
    34   17   18 ar
    35   18   19 ar
    36   18   49 1
    37   19   20 ar
    38   19   50 1
    39   20   21 ar
    40   20   23 1
    41   21   22 ar
    42   21   51 1
    43   22   52 1
    44   23   24 1
    45   23   25 1
    46   23   53 1
    47   24   54 1
    48   24   55 1
    49   24   56 1
    50   25   57 1
    51   25   58 1
    52   25   59 1
    53   26   27 2
    54   26   60 1
    55   27   28 1
    56   27   30 1
    57   28   29 3
    58   30   31 2
    59   30   32 1
    60   32   33 1
    61   33   34 1
    62   33   61 1
    63   33   62 1
    64   34   63 1
    65   34   64 1
    66   34   65 1
@<TRIPOS>MOLECULE
ZINC64857996
   59    60     0     0     0
SMALL
USER_CHARGES

@<TRIPOS>ATOM
      1 C1         -0.0187    1.5258    0.0104 C.3       1 <0>        -0.1543
      2 C2          0.0021   -0.0041    0.0020 C.3       1 <0>        -0.1259
      3 C3          0.7421   -0.5109    1.2415 C.3       1 <0>        -0.1213
      4 C4          0.7628   -2.0407    1.2331 C.3       1 <0>        -0.1203
      5 C5          1.5028   -2.5476    2.4727 C.3       1 <0>        -0.1194
      6 C6          1.5236   -4.0774    2.4642 C.3       1 <0>        -0.1175
      7 C7          2.2636   -4.5842    3.7038 C.3       1 <0>        -0.1109
      8 C8          2.2843   -6.1141    3.6954 C.3       1 <0>        -0.1044
      9 H1          1.2722   -6.5078    3.6014 H         1 <0>         0.0879
     10 C9          3.1847   -6.6413    2.5359 C.3       1 <0>         0.0343
     11 H2          2.7359   -6.6469    1.5427 H         1 <0>         0.1504
     12 C10         3.6243   -8.0328    3.1144 C.3       1 <0>        -0.1671
     13 C11         4.1968   -7.4476    4.4538 C.3       1 <0>         0.0409
     14 H3          4.6507   -8.1608    5.1419 H         1 <0>         0.1522
     15 C12         2.9577   -6.6532    4.9791 C.3       1 <0>        -0.0818
     16 H4          3.2750   -5.8292    5.6182 H         1 <0>         0.0928
     17 C13         2.0187   -7.5676    5.7229 C.2       1 <0>        -0.1317
     18 C14         1.6584   -7.2798    6.9490 C.2       1 <0>        -0.1833
     19 C15         0.7194   -8.1942    7.6928 C.3       1 <0>         0.1362
     20 H5          0.4497   -9.0354    7.0542 H         1 <0>         0.0995
     21 C16         1.4078   -8.7135    8.9567 C.3       1 <0>        -0.1478
     22 C17         0.5034   -9.7373    9.6459 C.3       1 <0>        -0.1173
     23 C18         1.1918  -10.2566   10.9098 C.3       1 <0>        -0.1208
     24 C19         0.2874  -11.2803   11.5991 C.3       1 <0>        -0.1259
     25 C20         0.9758  -11.7996   12.8630 C.3       1 <0>        -0.1544
     26 O1         -0.4602   -7.4735    8.0547 O.3       1 <0>        -0.5556
     27 O2          5.0784   -6.4164    3.9192 O.3       1 <0>        -0.2058
     28 O3          4.4235   -5.8855    2.6798 O.3       1 <0>        -0.1955
     29 H6          1.0039    1.9031    0.0027 H         1 <0>         0.0534
     30 H7         -0.5459    1.8868   -0.8726 H         1 <0>         0.0533
     31 H8         -0.5289    1.8773    0.9072 H         1 <0>         0.0532
     32 H9         -1.0205   -0.3814    0.0098 H         1 <0>         0.0600
     33 H10         0.5123   -0.3556   -0.8948 H         1 <0>         0.0602
     34 H11         1.7647   -0.1336    1.2338 H         1 <0>         0.0609
     35 H12         0.2319   -0.1594    2.1383 H         1 <0>         0.0604
     36 H13        -0.2598   -2.4180    1.2409 H         1 <0>         0.0600
     37 H14         1.2730   -2.3923    0.3363 H         1 <0>         0.0604
     38 H15         2.5254   -2.1703    2.4649 H         1 <0>         0.0620
     39 H16         0.9926   -2.1961    3.3695 H         1 <0>         0.0601
     40 H17         0.5010   -4.4547    2.4720 H         1 <0>         0.0595
     41 H18         2.0337   -4.4289    1.5675 H         1 <0>         0.0602
     42 H19         3.2861   -4.2070    3.6960 H         1 <0>         0.0771
     43 H20         1.7534   -4.2327    4.6006 H         1 <0>         0.0632
     44 H21         2.7757   -8.6958    3.2834 H         1 <0>         0.0971
     45 H22         4.3963   -8.5063    2.5079 H         1 <0>         0.0937
     46 H23         1.6428   -8.4602    5.2450 H         1 <0>         0.1136
     47 H24         2.0343   -6.3872    7.4269 H         1 <0>         0.1127
     48 H25         2.3525   -9.1860    8.6878 H         1 <0>         0.0719
     49 H26         1.5976   -7.8816    9.6349 H         1 <0>         0.0666
     50 H27        -0.4413   -9.2648    9.9147 H         1 <0>         0.0689
     51 H28         0.3136  -10.5692    8.9677 H         1 <0>         0.0608
     52 H29         2.1365  -10.7291   10.6410 H         1 <0>         0.0600
     53 H30         1.3816   -9.4247   11.5880 H         1 <0>         0.0604
     54 H31        -0.6573  -10.8078   11.8679 H         1 <0>         0.0612
     55 H32         0.0976  -12.1122   10.9208 H         1 <0>         0.0605
     56 H33         1.1656  -10.9677   13.5412 H         1 <0>         0.0533
     57 H34         0.3315  -12.5290   13.3540 H         1 <0>         0.0539
     58 H35         1.9205  -12.2721   12.5941 H         1 <0>         0.0532
     59 H36        -0.2952   -6.7096    8.6241 H         1 <0>         0.3752
@<TRIPOS>BOND
     1    1    2 1
     2    1   29 1
     3    1   30 1
     4    1   31 1
     5    2    3 1
     6    2   32 1
     7    2   33 1
     8    3    4 1
     9    3   34 1
    10    3   35 1
    11    4    5 1
    12    4   36 1
    13    4   37 1
    14    5    6 1
    15    5   38 1
    16    5   39 1
    17    6    7 1
    18    6   40 1
    19    6   41 1
    20    7    8 1
    21    7   42 1
    22    7   43 1
    23    8    9 1
    24    8   15 1
    25    8   10 1
    26   10   11 1
    27   10   28 1
    28   10   12 1
    29   12   13 1
    30   12   44 1
    31   12   45 1
    32   13   14 1
    33   13   15 1
    34   13   27 1
    35   15   16 1
    36   15   17 1
    37   17   18 2
    38   17   46 1
    39   18   19 1
    40   18   47 1
    41   19   20 1
    42   19   21 1
    43   19   26 1
    44   21   22 1
    45   21   48 1
    46   21   49 1
    47   22   23 1
    48   22   50 1
    49   22   51 1
    50   23   24 1
    51   23   52 1
    52   23   53 1
    53   24   25 1
    54   24   54 1
    55   24   55 1
    56   25   56 1
    57   25   57 1
    58   25   58 1
    59   26   59 1
    60   27   28 1
@<TRIPOS>MOLECULE
ZINC09123953
   72    75     0     0     0
SMALL
USER_CHARGES
(dipentylBLAHyl) hexanoate
@<TRIPOS>ATOM
      1 C1          3.5327    9.4796    3.7163 C.3       1 <0>        -0.1538
      2 C2          2.8197    8.1854    4.1131 C.3       1 <0>        -0.1255
      3 C3          3.4819    7.0010    3.4062 C.3       1 <0>        -0.1173
      4 C4          2.7689    5.7067    3.8031 C.3       1 <0>        -0.1153
      5 C5          3.4310    4.5223    3.0961 C.3       1 <0>        -0.0755
      6 C6          2.7288    3.2475    3.4870 C.2       1 <0>         0.4016
      7 N1          1.7232    2.8471    2.7681 N.2       1 <0>        -0.4846
      8 C7          1.0414    1.7230    3.0449 C.2       1 <0>         0.2774
      9 C8          1.4211    0.9481    4.1465 C.2       1 <0>        -0.1481
     10 C9          0.5094   -0.1904    4.1889 C.2       1 <0>         0.0488
     11 C10        -0.3422   -0.0418    3.1520 C.2       1 <0>        -0.0010
     12 N2         -0.0249    1.0999    2.4598 N.pl3     1 <0>        -0.4211
     13 C11        -0.7305    1.5836    1.2705 C.3       1 <0>         0.1072
     14 C12        -0.0020    1.1020    0.0142 C.3       1 <0>        -0.1357
     15 C13        -0.7389    1.6071   -1.2279 C.3       1 <0>        -0.1159
     16 C14        -0.0104    1.1255   -2.4841 C.3       1 <0>        -0.1241
     17 C15        -0.7473    1.6307   -3.7262 C.3       1 <0>        -0.1538
     18 O1          0.5132   -1.2022    5.0997 O.3       1 <0>        -0.2426
     19 C16        -0.4927   -2.0876    5.0310 C.2       1 <0>         0.4599
     20 O2         -1.2973   -2.0218    4.1268 O.2       1 <0>        -0.4991
     21 C17        -0.6221   -3.1638    6.0779 C.3       1 <0>        -0.1088
     22 C18        -1.8430   -4.0323    5.7683 C.3       1 <0>        -0.1099
     23 C19        -1.9744   -5.1250    6.8312 C.3       1 <0>        -0.1210
     24 C20        -3.1953   -5.9935    6.5217 C.3       1 <0>        -0.1251
     25 C21        -3.3267   -7.0861    7.5846 C.3       1 <0>        -0.1544
     26 C22         2.5523    1.3969    4.9567 C.2       1 <0>         0.3598
     27 N3          3.1766    2.5659    4.5781 N.pl3     1 <0>        -0.4431
     28 C23         4.2019    2.7883    5.4785 C.ar      1 <0>         0.0264
     29 C24         5.1618    3.7811    5.6173 C.ar      1 <0>        -0.0946
     30 C25         6.0709    3.7147    6.6521 C.ar      1 <0>        -0.1102
     31 C26         6.0336    2.6618    7.5555 C.ar      1 <0>        -0.1067
     32 C27         5.0969    1.6751    7.4361 C.ar      1 <0>        -0.0742
     33 C28         4.1638    1.7213    6.3943 C.ar      1 <0>         0.0869
     34 N4          3.1429    0.9096    6.0272 N.2       1 <0>        -0.4793
     35 H1          4.5810    9.4215    4.0093 H         1 <0>         0.0546
     36 H2          3.4641    9.6160    2.6371 H         1 <0>         0.0544
     37 H3          3.0610   10.3234    4.2200 H         1 <0>         0.0545
     38 H4          1.7714    8.2435    3.8202 H         1 <0>         0.0619
     39 H5          2.8884    8.0489    5.1924 H         1 <0>         0.0619
     40 H6          4.5302    6.9428    3.6992 H         1 <0>         0.0657
     41 H7          3.4132    7.1374    2.3270 H         1 <0>         0.0681
     42 H8          1.7206    5.7649    3.5101 H         1 <0>         0.0745
     43 H9          2.8375    5.5703    4.8823 H         1 <0>         0.0663
     44 H10         4.4793    4.4642    3.3891 H         1 <0>         0.0961
     45 H11         3.3624    4.6588    2.0169 H         1 <0>         0.1107
     46 H12        -1.1467   -0.7182    2.9039 H         1 <0>         0.2189
     47 H13        -0.7553    2.6732    1.2809 H         1 <0>         0.0971
     48 H14        -1.7496    1.1969    1.2703 H         1 <0>         0.0991
     49 H15         0.0228    0.0123    0.0039 H         1 <0>         0.0709
     50 H16         1.0171    1.4886    0.0144 H         1 <0>         0.0720
     51 H17        -1.7580    1.2205   -1.2281 H         1 <0>         0.0664
     52 H18        -0.7637    2.6968   -1.2175 H         1 <0>         0.0669
     53 H19         1.0087    1.5122   -2.4839 H         1 <0>         0.0618
     54 H20         0.0144    0.0359   -2.4945 H         1 <0>         0.0618
     55 H21        -0.2283    1.2876   -4.6212 H         1 <0>         0.0550
     56 H22        -1.7664    1.2440   -3.7264 H         1 <0>         0.0545
     57 H23        -0.7721    2.7203   -3.7159 H         1 <0>         0.0545
     58 H24         0.2747   -3.7834    6.0749 H         1 <0>         0.1116
     59 H25        -0.7426   -2.7039    7.0588 H         1 <0>         0.1117
     60 H26        -2.7398   -3.4128    5.7714 H         1 <0>         0.0735
     61 H27        -1.7225   -4.4922    4.7875 H         1 <0>         0.0738
     62 H28        -1.0776   -5.7445    6.8282 H         1 <0>         0.0659
     63 H29        -2.0949   -4.6651    7.8121 H         1 <0>         0.0658
     64 H30        -4.0921   -5.3740    6.5247 H         1 <0>         0.0623
     65 H31        -3.0748   -6.4534    5.5408 H         1 <0>         0.0624
     66 H32        -3.4472   -6.6263    8.5654 H         1 <0>         0.0541
     67 H33        -4.1965   -7.7049    7.3640 H         1 <0>         0.0543
     68 H34        -2.4299   -7.7057    7.5815 H         1 <0>         0.0542
     69 H35         5.1964    4.6029    4.9174 H         1 <0>         0.1301
     70 H36         6.8176    4.4875    6.7602 H         1 <0>         0.1355
     71 H37         6.7521    2.6225    8.3609 H         1 <0>         0.1348
     72 H38         5.0766    0.8601    8.1445 H         1 <0>         0.1351
@<TRIPOS>BOND
     1    1    2 1
     2    1   35 1
     3    1   36 1
     4    1   37 1
     5    2    3 1
     6    2   38 1
     7    2   39 1
     8    3    4 1
     9    3   40 1
    10    3   41 1
    11    4    5 1
    12    4   42 1
    13    4   43 1
    14    5    6 1
    15    5   44 1
    16    5   45 1
    17    6   27 1
    18    6    7 2
    19    7    8 1
    20    8   12 1
    21    8    9 2
    22    9   10 1
    23    9   26 1
    24   10   11 2
    25   10   18 1
    26   11   12 1
    27   11   46 1
    28   12   13 1
    29   13   14 1
    30   13   47 1
    31   13   48 1
    32   14   15 1
    33   14   49 1
    34   14   50 1
    35   15   16 1
    36   15   51 1
    37   15   52 1
    38   16   17 1
    39   16   53 1
    40   16   54 1
    41   17   55 1
    42   17   56 1
    43   17   57 1
    44   18   19 1
    45   19   20 2
    46   19   21 1
    47   21   22 1
    48   21   58 1
    49   21   59 1
    50   22   23 1
    51   22   60 1
    52   22   61 1
    53   23   24 1
    54   23   62 1
    55   23   63 1
    56   24   25 1
    57   24   64 1
    58   24   65 1
    59   25   66 1
    60   25   67 1
    61   25   68 1
    62   26   34 2
    63   26   27 1
    64   27   28 1
    65   28   33 ar
    66   28   29 ar
    67   29   30 ar
    68   29   69 1
    69   30   31 ar
    70   30   70 1
    71   31   32 ar
    72   31   71 1
    73   32   33 ar
    74   32   72 1
    75   33   34 1
@<TRIPOS>MOLECULE
ZINC33689372
   74    76     0     0     0
SMALL
USER_CHARGES
N-[2-[(4-fluorophenyl)methyl-(2-thienylmethyl)amino]-2-oxo-ethyl]-N-(3-methoxypropyl)-4-pentyl-benzamide
@<TRIPOS>ATOM
      1 C1         -1.5663   11.5630    4.1996 C.3       1 <0>        -0.1557
      2 C2         -1.4182   10.0508    4.0199 C.3       1 <0>        -0.1265
      3 C3         -1.7112    9.6791    2.5649 C.3       1 <0>        -0.1214
      4 C4         -1.5631    8.1669    2.3851 C.3       1 <0>        -0.1147
      5 C5         -1.8561    7.7951    0.9302 C.3       1 <0>        -0.0879
      6 C6         -1.7102    6.3057    0.7531 C.ar      1 <0>        -0.0524
      7 C7         -2.8034    5.4792    0.9431 C.ar      1 <0>        -0.1244
      8 C8         -2.6769    4.1149    0.7817 C.ar      1 <0>        -0.0541
      9 C9         -1.4425    3.5689    0.4264 C.ar      1 <0>        -0.1368
     10 C10        -0.3423    4.4078    0.2419 C.ar      1 <0>        -0.1196
     11 C11        -0.4838    5.7709    0.4009 C.ar      1 <0>        -0.1263
     12 C12        -1.2994    2.1077    0.2522 C.2       1 <0>         0.5689
     13 O1         -2.2736    1.4282   -0.0062 O.2       1 <0>        -0.5278
     14 N1         -0.0889    1.5291    0.3800 N.am      1 <0>        -0.5859
     15 C13         1.0725    2.3369    0.7605 C.3       1 <0>         0.0772
     16 C14         1.9555    2.5706   -0.4670 C.3       1 <0>        -0.1510
     17 C15         3.1684    3.4142   -0.0696 C.3       1 <0>         0.0601
     18 O2          3.9931    3.6324   -1.2161 O.3       1 <0>        -0.3884
     19 C16         5.1599    4.4142   -0.9525 C.3       1 <0>         0.0279
     20 C17         0.0666    0.0936    0.1325 C.3       1 <0>         0.0930
     21 C18        -0.1448   -0.6636    1.4182 C.2       1 <0>         0.5065
     22 O3         -0.4002   -0.0632    2.4406 O.2       1 <0>        -0.5158
     23 N2         -0.0500   -2.0079    1.4320 N.am      1 <0>        -0.6027
     24 C19        -0.2555   -2.7440    2.6818 C.3       1 <0>         0.1558
     25 C20        -1.7138   -3.0972    2.8229 C.ar      1 <0>        -0.1213
     26 C21        -2.5752   -2.2297    3.4683 C.ar      1 <0>        -0.0621
     27 C22        -3.9136   -2.5503    3.5940 C.ar      1 <0>        -0.1543
     28 C23        -4.3896   -3.7457    3.0825 C.ar      1 <0>         0.1043
     29 C24        -3.5248   -4.6161    2.4409 C.ar      1 <0>        -0.1569
     30 C25        -2.1879   -4.2910    2.3117 C.ar      1 <0>        -0.0781
     31 F1         -5.6969   -4.0623    3.2089 F         1 <0>        -0.1389
     32 C26         0.2585   -2.7332    0.1970 C.3       1 <0>         0.1874
     33 C27         1.7521   -2.8811    0.0611 C.2       1 <0>        -0.1761
     34 C28         2.5562   -3.8739    0.5138 C.2       1 <0>        -0.1328
     35 C29         3.9143   -3.8017    0.2667 C.2       1 <0>        -0.1603
     36 C30         4.4032   -2.7348   -0.4116 C.2       1 <0>        -0.1608
     37 S1          2.9224   -1.7902   -0.7310 S.3       1 <0>         0.0358
     38 H1         -1.3557   11.8303    5.2456 H         1 <0>         0.0540
     39 H2         -2.5930   11.8638    3.9439 H         1 <0>         0.0541
     40 H3         -0.8567   12.0820    3.5385 H         1 <0>         0.0539
     41 H4         -0.3915    9.7500    4.2756 H         1 <0>         0.0609
     42 H5         -2.1278    9.5317    4.6810 H         1 <0>         0.0613
     43 H6         -2.7379    9.9800    2.3092 H         1 <0>         0.0630
     44 H7         -1.0016   10.1982    1.9038 H         1 <0>         0.0627
     45 H8         -0.5364    7.8661    2.6408 H         1 <0>         0.0643
     46 H9         -2.2726    7.6478    3.0462 H         1 <0>         0.0649
     47 H10        -2.8828    8.0959    0.6745 H         1 <0>         0.0762
     48 H11        -1.1466    8.3142    0.2690 H         1 <0>         0.0760
     49 H12        -3.7580    5.9030    1.2179 H         1 <0>         0.1294
     50 H13        -3.5311    3.4709    0.9295 H         1 <0>         0.1333
     51 H14         0.6167    3.9911   -0.0287 H         1 <0>         0.1598
     52 H15         0.3657    6.4215    0.2541 H         1 <0>         0.1278
     53 H16         0.7319    3.3049    1.1568 H         1 <0>         0.1213
     54 H17         1.6503    1.8075    1.5324 H         1 <0>         0.0820
     55 H18         2.2961    1.6026   -0.8633 H         1 <0>         0.0843
     56 H19         1.3777    3.1000   -1.2389 H         1 <0>         0.0853
     57 H20         2.8278    4.3822    0.3267 H         1 <0>         0.0537
     58 H21         3.7462    2.8848    0.7023 H         1 <0>         0.0551
     59 H22         5.7374    4.5355   -1.8808 H         1 <0>         0.0891
     60 H23         5.7794    3.9057   -0.1991 H         1 <0>         0.0429
     61 H24         4.8610    5.4031   -0.5747 H         1 <0>         0.0435
     62 H25        -0.6751   -0.2327   -0.6114 H         1 <0>         0.1177
     63 H26         1.0794   -0.1053   -0.2479 H         1 <0>         0.1081
     64 H27         0.3452   -3.6654    2.6677 H         1 <0>         0.0904
     65 H28         0.0539   -2.1176    3.5314 H         1 <0>         0.0974
     66 H29        -2.2029   -1.2993    3.8709 H         1 <0>         0.1369
     67 H30        -4.5872   -1.8706    4.0947 H         1 <0>         0.1354
     68 H31        -3.8951   -5.5486    2.0411 H         1 <0>         0.1362
     69 H32        -1.5132   -4.9696    1.8110 H         1 <0>         0.1310
     70 H33        -0.2071   -3.7292    0.2307 H         1 <0>         0.1099
     71 H34        -0.1345   -2.1738   -0.6647 H         1 <0>         0.0981
     72 H35         2.1417   -4.7103    1.0568 H         1 <0>         0.1337
     73 H36         4.5766   -4.5813    0.6130 H         1 <0>         0.1358
     74 H37         5.4238   -2.5135   -0.6870 H         1 <0>         0.1867
@<TRIPOS>BOND
     1    1    2 1
     2    1   38 1
     3    1   39 1
     4    1   40 1
     5    2    3 1
     6    2   41 1
     7    2   42 1
     8    3    4 1
     9    3   43 1
    10    3   44 1
    11    4    5 1
    12    4   45 1
    13    4   46 1
    14    5    6 1
    15    5   47 1
    16    5   48 1
    17    6   11 ar
    18    6    7 ar
    19    7    8 ar
    20    7   49 1
    21    8    9 ar
    22    8   50 1
    23    9   10 ar
    24    9   12 1
    25   10   11 ar
    26   10   51 1
    27   11   52 1
    28   12   13 2
    29   12   14 am
    30   14   15 1
    31   14   20 1
    32   15   16 1
    33   15   53 1
    34   15   54 1
    35   16   17 1
    36   16   55 1
    37   16   56 1
    38   17   18 1
    39   17   57 1
    40   17   58 1
    41   18   19 1
    42   19   59 1
    43   19   60 1
    44   19   61 1
    45   20   21 1
    46   20   62 1
    47   20   63 1
    48   21   22 2
    49   21   23 am
    50   23   24 1
    51   23   32 1
    52   24   25 1
    53   24   64 1
    54   24   65 1
    55   25   30 ar
    56   25   26 ar
    57   26   27 ar
    58   26   66 1
    59   27   28 ar
    60   27   67 1
    61   28   29 ar
    62   28   31 1
    63   29   30 ar
    64   29   68 1
    65   30   69 1
    66   32   33 1
    67   32   70 1
    68   32   71 1
    69   33   37 1
    70   33   34 2
    71   34   35 1
    72   34   72 1
    73   35   36 2
    74   35   73 1
    75   36   37 1
    76   36   74 1
@<TRIPOS>MOLECULE
ZINC36587518
   79    80     0     0     0
SMALL
USER_CHARGES

@<TRIPOS>ATOM
      1 C1         -2.5650    1.3474   -1.1157 C.3       1 <0>        -0.1536
      2 C2         -2.1064   -0.0917   -0.8720 C.3       1 <0>        -0.1248
      3 C3         -3.3258   -0.9781   -0.6102 C.3       1 <0>        -0.1188
      4 C4         -2.8672   -2.4173   -0.3665 C.3       1 <0>        -0.1131
      5 C5         -4.0865   -3.3036   -0.1047 C.3       1 <0>        -0.1655
      6 C6         -3.6280   -4.7428    0.1390 C.3       1 <0>         0.1294
      7 H1         -3.1332   -5.1228   -0.7549 H         1 <0>         0.1301
      8 C7         -4.8233   -5.6040    0.4561 C.2       1 <0>         0.5097
      9 O1         -4.8755   -6.2053    1.5080 O.2       1 <0>        -0.5004
     10 N1         -5.8343   -5.7060   -0.4294 N.am      1 <0>        -0.7057
     11 C8         -6.9963   -6.5432   -0.1211 C.3       1 <0>        -0.3612
     12 S1         -8.3067   -5.5169    0.6002 S.o2      1 <0>         2.4709
     13 O2         -9.4644   -6.3032    0.8466 O.2       1 <0>        -0.9319
     14 O3         -7.7699   -4.6800    1.6154 O.2       1 <0>        -0.9172
     15 C9         -8.7789   -4.4132   -0.6895 C.ar      1 <0>        -0.6663
     16 C10        -8.1388   -3.1956   -0.8261 C.ar      1 <0>        -0.0175
     17 C11        -8.5093   -2.3297   -1.8379 C.ar      1 <0>        -0.1403
     18 C12        -9.5196   -2.6815   -2.7134 C.ar      1 <0>        -0.0265
     19 C13       -10.1592   -3.8994   -2.5773 C.ar      1 <0>        -0.1400
     20 C14        -9.7857   -4.7672   -1.5681 C.ar      1 <0>        -0.0201
     21 C15        -9.9242   -1.7370   -3.8158 C.3       1 <0>        -0.1276
     22 N2         -2.6918   -4.7729    1.2654 N.am      1 <0>        -0.5833
     23 C16        -1.4078   -5.1305    1.0652 C.2       1 <0>         0.5249
     24 O4         -1.0297   -5.4362   -0.0459 O.2       1 <0>        -0.5398
     25 C17        -0.4420   -5.1503    2.2218 C.3       1 <0>        -0.1526
     26 C18         0.8751   -5.7883    1.7756 C.3       1 <0>        -0.0633
     27 C19         1.8409   -5.8081    2.9323 C.ar      1 <0>        -0.1203
     28 C20         2.6909   -4.7375    3.1401 C.ar      1 <0>        -0.0755
     29 C21         3.5774   -4.7535    4.1994 C.ar      1 <0>        -0.1492
     30 C22         3.6142   -5.8447    5.0553 C.ar      1 <0>         0.1236
     31 C23         2.7600   -6.9174    4.8449 C.ar      1 <0>        -0.2053
     32 C24         1.8717   -6.8943    3.7872 C.ar      1 <0>        -0.0752
     33 O5          4.4858   -5.8629    6.0978 O.3       1 <0>        -0.3185
     34 C25         4.4683   -7.0188    6.9379 C.3       1 <0>         0.0269
     35 C26        -3.1512   -4.4144    2.6095 C.3       1 <0>         0.1734
     36 C27        -3.2858   -5.6810    3.4572 C.3       1 <0>        -0.1841
     37 C28        -2.1379   -3.4706    3.2600 C.3       1 <0>        -0.1917
     38 C29        -4.5099   -3.7173    2.5150 C.3       1 <0>        -0.1714
     39 H2         -1.6963    1.9789   -1.3022 H         1 <0>         0.0535
     40 H3         -3.2275    1.3761   -1.9808 H         1 <0>         0.0528
     41 H4         -3.0978    1.7126   -0.2378 H         1 <0>         0.0533
     42 H5         -1.5736   -0.4569   -1.7500 H         1 <0>         0.0607
     43 H6         -1.4439   -0.1204   -0.0069 H         1 <0>         0.0602
     44 H7         -3.8586   -0.6130    0.2677 H         1 <0>         0.0617
     45 H8         -3.9883   -0.9494   -1.4753 H         1 <0>         0.0613
     46 H9         -2.3343   -2.7824   -1.2445 H         1 <0>         0.0647
     47 H10        -2.2047   -2.4460    0.4986 H         1 <0>         0.0663
     48 H11        -4.6194   -2.9385    0.7732 H         1 <0>         0.1101
     49 H12        -4.7490   -3.2750   -0.9698 H         1 <0>         0.0746
     50 H13        -5.7925   -5.2251   -1.2707 H         1 <0>         0.4133
     51 H14        -7.3618   -7.0088   -1.0364 H         1 <0>         0.1455
     52 H15        -6.7080   -7.3172    0.5902 H         1 <0>         0.1565
     53 H16        -7.3495   -2.9207   -0.1422 H         1 <0>         0.1398
     54 H17        -8.0097   -1.3781   -1.9442 H         1 <0>         0.1337
     55 H18       -10.9487   -4.1741   -3.2610 H         1 <0>         0.1339
     56 H19       -10.2828   -5.7203   -1.4640 H         1 <0>         0.1416
     57 H20        -9.3299   -1.9420   -4.7062 H         1 <0>         0.0808
     58 H21       -10.9809   -1.8765   -4.0442 H         1 <0>         0.0739
     59 H22        -9.7546   -0.7094   -3.4943 H         1 <0>         0.0739
     60 H23        -0.2562   -4.1301    2.5575 H         1 <0>         0.1141
     61 H24        -0.8676   -5.7304    3.0407 H         1 <0>         0.1029
     62 H25         0.6893   -6.8085    1.4399 H         1 <0>         0.0751
     63 H26         1.3007   -5.2082    0.9568 H         1 <0>         0.0809
     64 H27         2.6619   -3.8883    2.4735 H         1 <0>         0.1293
     65 H28         4.2416   -3.9173    4.3609 H         1 <0>         0.1305
     66 H29         2.7867   -7.7681    5.5098 H         1 <0>         0.1276
     67 H30         1.2034   -7.7272    3.6255 H         1 <0>         0.1240
     68 H31         5.2099   -6.9047    7.7285 H         1 <0>         0.1007
     69 H32         3.4789   -7.1308    7.3813 H         1 <0>         0.0558
     70 H33         4.7027   -7.9027    6.3446 H         1 <0>         0.0556
     71 H34        -2.3002   -6.1189    3.6151 H         1 <0>         0.0506
     72 H35        -3.7295   -5.4282    4.4202 H         1 <0>         0.0609
     73 H36        -3.9235   -6.3981    2.9403 H         1 <0>         0.1092
     74 H37        -1.8482   -2.7001    2.5455 H         1 <0>         0.0630
     75 H38        -2.5872   -3.0031    4.1362 H         1 <0>         0.0712
     76 H39        -1.2563   -4.0361    3.5619 H         1 <0>         0.0864
     77 H40        -5.1589   -4.2761    1.8408 H         1 <0>         0.0833
     78 H41        -4.9653   -3.6733    3.5043 H         1 <0>         0.0710
     79 H42        -4.3734   -2.7057    2.1325 H         1 <0>         0.0675
@<TRIPOS>BOND
     1    1    2 1
     2    1   39 1
     3    1   40 1
     4    1   41 1
     5    2    3 1
     6    2   42 1
     7    2   43 1
     8    3    4 1
     9    3   44 1
    10    3   45 1
    11    4    5 1
    12    4   46 1
    13    4   47 1
    14    5    6 1
    15    5   48 1
    16    5   49 1
    17    6    7 1
    18    6    8 1
    19    6   22 1
    20    8    9 2
    21    8   10 am
    22   10   11 1
    23   10   50 1
    24   11   12 1
    25   11   51 1
    26   11   52 1
    27   12   13 2
    28   12   14 2
    29   12   15 1
    30   15   20 ar
    31   15   16 ar
    32   16   17 ar
    33   16   53 1
    34   17   18 ar
    35   17   54 1
    36   18   19 ar
    37   18   21 1
    38   19   20 ar
    39   19   55 1
    40   20   56 1
    41   21   57 1
    42   21   58 1
    43   21   59 1
    44   22   23 am
    45   22   35 1
    46   23   24 2
    47   23   25 1
    48   25   26 1
    49   25   60 1
    50   25   61 1
    51   26   27 1
    52   26   62 1
    53   26   63 1
    54   27   32 ar
    55   27   28 ar
    56   28   29 ar
    57   28   64 1
    58   29   30 ar
    59   29   65 1
    60   30   31 ar
    61   30   33 1
    62   31   32 ar
    63   31   66 1
    64   32   67 1
    65   33   34 1
    66   34   68 1
    67   34   69 1
    68   34   70 1
    69   35   36 1
    70   35   37 1
    71   35   38 1
    72   36   71 1
    73   36   72 1
    74   36   73 1
    75   37   74 1
    76   37   75 1
    77   37   76 1
    78   38   77 1
    79   38   78 1
    80   38   79 1
@<TRIPOS>MOLECULE
ZINC40211991
   73    75     0     0     0
SMALL
USER_CHARGES

@<TRIPOS>ATOM
      1 C1         -0.0187    1.5258    0.0104 C.3       1 <0>        -0.1292
      2 C2          0.0021   -0.0041    0.0020 C.3       1 <0>        -0.0873
      3 C3          0.7421   -0.5109    1.2415 C.3       1 <0>        -0.1412
      4 C4         -1.4333   -0.5336    0.0129 C.3       1 <0>        -0.1410
      5 C5          0.7074   -0.4901   -1.2379 C.2       1 <0>         0.5215
      6 O1          1.1500    0.3085   -2.0362 O.2       1 <0>        -0.5368
      7 N1          0.8465   -1.8122   -1.4596 N.am      1 <0>        -0.7316
      8 C6          1.5322   -2.2846   -2.6649 C.3       1 <0>         0.1170
      9 C7          1.5530   -3.8145   -2.6733 C.3       1 <0>        -0.1313
     10 C8          2.2691   -4.3079   -3.9321 C.3       1 <0>        -0.1156
     11 C9          2.2899   -5.8377   -3.9405 C.3       1 <0>        -0.1124
     12 C10         3.0060   -6.3311   -5.1993 C.3       1 <0>        -0.0450
     13 C11         3.0264   -7.8380   -5.2076 C.2       1 <0>         0.2871
     14 N2          3.9623   -8.5736   -4.6824 N.2       1 <0>        -0.4907
     15 C12         3.6689   -9.8864   -4.8675 C.ar      1 <0>         0.0464
     16 C13         4.3118  -11.0764   -4.5163 C.ar      1 <0>        -0.0646
     17 C14         3.7529  -12.2767   -4.8521 C.ar      1 <0>        -0.1280
     18 C15         2.5494  -12.3292   -5.5413 C.ar      1 <0>        -0.1017
     19 C16         1.8975  -11.1681   -5.8981 C.ar      1 <0>        -0.1115
     20 C17         2.4502   -9.9389   -5.5649 C.ar      1 <0>         0.0474
     21 N3          2.0662   -8.6274   -5.7602 N.pl3     1 <0>        -0.4873
     22 C18         0.8514   -8.1703   -6.4397 C.3       1 <0>         0.1113
     23 C19         1.1374   -7.9942   -7.9323 C.3       1 <0>        -0.1342
     24 C20        -0.1313   -7.5169   -8.6419 C.3       1 <0>        -0.1147
     25 C21         0.1548   -7.3409  -10.1346 C.3       1 <0>         0.0596
     26 O2         -1.0302   -6.8950  -10.7973 O.3       1 <0>        -0.3041
     27 C22        -0.9466   -6.6882  -12.1388 C.ar      1 <0>         0.1007
     28 C23         0.2480   -6.9150  -12.8033 C.ar      1 <0>        -0.1734
     29 C24         0.3311   -6.7047  -14.1671 C.ar      1 <0>        -0.1166
     30 C25        -0.7756   -6.2676  -14.8709 C.ar      1 <0>        -0.1161
     31 C26        -1.9704   -6.0390  -14.2141 C.ar      1 <0>        -0.1730
     32 C27        -2.0622   -6.2538  -12.8482 C.ar      1 <0>         0.0985
     33 O3         -3.2383   -6.0352  -12.2015 O.3       1 <0>        -0.3073
     34 C28        -4.3413   -5.5901  -12.9937 C.3       1 <0>         0.0257
     35 H1          1.0039    1.9031    0.0027 H         1 <0>         0.0624
     36 H2         -0.5459    1.8868   -0.8726 H         1 <0>         0.0623
     37 H3         -0.5289    1.8773    0.9072 H         1 <0>         0.0628
     38 H4          0.2319   -0.1594    2.1383 H         1 <0>         0.0702
     39 H5          0.7568   -1.6008    1.2356 H         1 <0>         0.0588
     40 H6          1.7647   -0.1336    1.2338 H         1 <0>         0.0617
     41 H7         -1.9605   -0.1726   -0.8702 H         1 <0>         0.0614
     42 H8         -1.4185   -1.6235    0.0069 H         1 <0>         0.0586
     43 H9         -1.9435   -0.1821    0.9097 H         1 <0>         0.0702
     44 H10         0.4926   -2.4509   -0.8211 H         1 <0>         0.3999
     45 H11         1.0050   -1.9236   -3.5480 H         1 <0>         0.0675
     46 H12         2.5548   -1.9074   -2.6726 H         1 <0>         0.0682
     47 H13         2.0801   -4.1755   -1.7903 H         1 <0>         0.0711
     48 H14         0.5304   -4.1918   -2.6656 H         1 <0>         0.0692
     49 H15         1.7419   -3.9468   -4.8152 H         1 <0>         0.0688
     50 H16         3.2917   -3.9306   -3.9399 H         1 <0>         0.0720
     51 H17         2.8170   -6.1988   -3.0575 H         1 <0>         0.0744
     52 H18         1.2673   -6.2150   -3.9328 H         1 <0>         0.0628
     53 H19         2.4788   -5.9701   -6.0824 H         1 <0>         0.0847
     54 H20         4.0286   -5.9539   -5.2071 H         1 <0>         0.1025
     55 H21         5.2490  -11.0471   -3.9805 H         1 <0>         0.1285
     56 H22         4.2528  -13.1943   -4.5789 H         1 <0>         0.1294
     57 H23         2.1209  -13.2861   -5.8002 H         1 <0>         0.1297
     58 H24         0.9611  -11.2145   -6.4341 H         1 <0>         0.1203
     59 H25         0.0606   -8.9085   -6.3059 H         1 <0>         0.0932
     60 H26         0.5345   -7.2175   -6.0156 H         1 <0>         0.0970
     61 H27         1.9282   -7.2560   -8.0662 H         1 <0>         0.0749
     62 H28         1.4543   -8.9470   -8.3564 H         1 <0>         0.0748
     63 H29        -0.9220   -8.2551   -8.5081 H         1 <0>         0.0794
     64 H30        -0.4482   -6.5641   -8.2178 H         1 <0>         0.0803
     65 H31         0.9455   -6.6027  -10.2684 H         1 <0>         0.0629
     66 H32         0.4717   -8.2937  -10.5587 H         1 <0>         0.0624
     67 H33         1.1143   -7.2557  -12.2557 H         1 <0>         0.1337
     68 H34         1.2628   -6.8818  -14.6838 H         1 <0>         0.1279
     69 H35        -0.7066   -6.1041  -15.9363 H         1 <0>         0.1281
     70 H36        -2.8334   -5.6973  -14.7662 H         1 <0>         0.1357
     71 H37        -5.2151   -5.4546  -12.3563 H         1 <0>         0.1014
     72 H38        -4.0881   -4.6427  -13.4694 H         1 <0>         0.0553
     73 H39        -4.5620   -6.3337  -13.7595 H         1 <0>         0.0552
@<TRIPOS>BOND
     1    1    2 1
     2    1   35 1
     3    1   36 1
     4    1   37 1
     5    2    3 1
     6    2    4 1
     7    2    5 1
     8    3   38 1
     9    3   39 1
    10    3   40 1
    11    4   41 1
    12    4   42 1
    13    4   43 1
    14    5    6 2
    15    5    7 am
    16    7    8 1
    17    7   44 1
    18    8    9 1
    19    8   45 1
    20    8   46 1
    21    9   10 1
    22    9   47 1
    23    9   48 1
    24   10   11 1
    25   10   49 1
    26   10   50 1
    27   11   12 1
    28   11   51 1
    29   11   52 1
    30   12   13 1
    31   12   53 1
    32   12   54 1
    33   13   21 1
    34   13   14 2
    35   14   15 1
    36   15   20 ar
    37   15   16 ar
    38   16   17 ar
    39   16   55 1
    40   17   18 ar
    41   17   56 1
    42   18   19 ar
    43   18   57 1
    44   19   20 ar
    45   19   58 1
    46   20   21 1
    47   21   22 1
    48   22   23 1
    49   22   59 1
    50   22   60 1
    51   23   24 1
    52   23   61 1
    53   23   62 1
    54   24   25 1
    55   24   63 1
    56   24   64 1
    57   25   26 1
    58   25   65 1
    59   25   66 1
    60   26   27 1
    61   27   32 ar
    62   27   28 ar
    63   28   29 ar
    64   28   67 1
    65   29   30 ar
    66   29   68 1
    67   30   31 ar
    68   30   69 1
    69   31   32 ar
    70   31   70 1
    71   32   33 1
    72   33   34 1
    73   34   71 1
    74   34   72 1
    75   34   73 1
@<TRIPOS>MOLECULE
ZINC49881746
   76    76     0     0     0
SMALL
USER_CHARGES

@<TRIPOS>ATOM
      1 C1         -0.0187    1.5258    0.0104 C.3       1 <0>        -0.1543
      2 C2          0.0021   -0.0041    0.0020 C.3       1 <0>        -0.1262
      3 C3          0.7182   -0.4975   -1.2568 C.3       1 <0>        -0.1212
      4 C4          0.7390   -2.0273   -1.2652 C.3       1 <0>        -0.1213
      5 C5          1.4551   -2.5207   -2.5240 C.3       1 <0>        -0.1206
      6 C6          1.4758   -4.0506   -2.5324 C.3       1 <0>        -0.1209
      7 C7          2.1920   -4.5440   -3.7912 C.3       1 <0>        -0.1204
      8 C8          2.2127   -6.0738   -3.7996 C.3       1 <0>        -0.1211
      9 C9          2.9289   -6.5673   -5.0584 C.3       1 <0>        -0.1203
     10 C10         2.9496   -8.0971   -5.0668 C.3       1 <0>        -0.1214
     11 C11         3.6658   -8.5905   -6.3257 C.3       1 <0>        -0.1202
     12 C12         3.6865  -10.1203   -6.3341 C.3       1 <0>        -0.1184
     13 C13         4.4026  -10.6138   -7.5929 C.3       1 <0>        -0.0247
     14 C14         4.4226  -12.0856   -7.6010 C.1       1 <0>        -0.0533
     15 C15         4.4385  -13.2595   -7.6074 C.1       1 <0>        -0.2594
     16 C16         4.4579  -14.6913   -7.6153 C.2       1 <0>         0.4666
     17 O1          4.9828  -15.2859   -8.5335 O.2       1 <0>        -0.3963
     18 C17         3.8265  -15.4597   -6.4831 C.3       1 <0>         0.0641
     19 H1          2.8571  -15.0345   -6.2230 H         1 <0>         0.1233
     20 C18         4.7627  -15.4875   -5.2490 C.3       1 <0>         0.0565
     21 O2          4.3426  -16.6930   -4.5692 O.3       1 <0>        -0.3455
     22 C19         4.0476  -17.6400   -5.6094 C.3       1 <0>         0.3395
     23 N1          3.6947  -16.8920   -6.8306 N.am      1 <0>        -0.6112
     24 C20         3.3285  -17.4061   -8.0215 C.2       1 <0>         0.6919
     25 O3          3.2607  -18.6104   -8.1683 O.2       1 <0>        -0.5517
     26 O4          3.0379  -16.5853   -9.0484 O.3       1 <0>        -0.3453
     27 C21         2.6572  -17.1987  -10.2816 C.3       1 <0>         0.1360
     28 C22         1.4014  -18.0451  -10.0637 C.3       1 <0>        -0.1860
     29 C23         2.3677  -16.1151  -11.3222 C.3       1 <0>        -0.1391
     30 C24         3.7948  -18.0927  -10.7791 C.3       1 <0>        -0.1831
     31 C25         5.2742  -18.5156   -5.8734 C.3       1 <0>        -0.1763
     32 C26         2.8683  -18.5190   -5.1879 C.3       1 <0>        -0.1588
     33 H2          1.0039    1.9031    0.0027 H         1 <0>         0.0533
     34 H3         -0.5459    1.8868   -0.8726 H         1 <0>         0.0533
     35 H4         -0.5289    1.8773    0.9072 H         1 <0>         0.0535
     36 H5          0.5293   -0.3651    0.8851 H         1 <0>         0.0602
     37 H6         -1.0205   -0.3814    0.0098 H         1 <0>         0.0603
     38 H7          0.1910   -0.1364   -2.1398 H         1 <0>         0.0606
     39 H8          1.7408   -0.1202   -1.2645 H         1 <0>         0.0605
     40 H9          1.2661   -2.3884   -0.3821 H         1 <0>         0.0605
     41 H10        -0.2836   -2.4046   -1.2575 H         1 <0>         0.0605
     42 H11         0.9279   -2.1597   -3.4071 H         1 <0>         0.0604
     43 H12         2.4777   -2.1435   -2.5317 H         1 <0>         0.0604
     44 H13         2.0030   -4.4117   -1.6494 H         1 <0>         0.0604
     45 H14         0.4533   -4.4279   -2.5247 H         1 <0>         0.0604
     46 H15         1.6648   -4.1829   -4.6743 H         1 <0>         0.0605
     47 H16         3.2146   -4.1667   -3.7990 H         1 <0>         0.0605
     48 H17         2.7399   -6.4349   -2.9166 H         1 <0>         0.0606
     49 H18         1.1901   -6.4511   -3.7919 H         1 <0>         0.0606
     50 H19         2.4017   -6.2062   -5.9415 H         1 <0>         0.0613
     51 H20         3.9515   -6.1900   -5.0662 H         1 <0>         0.0613
     52 H21         3.4768   -8.4582   -4.1838 H         1 <0>         0.0621
     53 H22         1.9270   -8.4744   -5.0591 H         1 <0>         0.0622
     54 H23         3.1386   -8.2294   -7.2087 H         1 <0>         0.0658
     55 H24         4.6884   -8.2132   -6.3334 H         1 <0>         0.0658
     56 H25         4.2137  -10.4814   -5.4510 H         1 <0>         0.0690
     57 H26         2.6639  -10.4976   -6.3263 H         1 <0>         0.0695
     58 H27         3.8755  -10.2527   -8.4759 H         1 <0>         0.1016
     59 H28         5.4252  -10.2365   -7.6006 H         1 <0>         0.1003
     60 H29         5.8063  -15.5590   -5.5557 H         1 <0>         0.0814
     61 H30         4.6015  -14.6117   -4.6204 H         1 <0>         0.1245
     62 H31         0.5909  -17.4082   -9.7093 H         1 <0>         0.0581
     63 H32         1.1109  -18.5131  -11.0044 H         1 <0>         0.0712
     64 H33         1.6076  -18.8171   -9.3224 H         1 <0>         0.0873
     65 H34         3.2624  -15.5122  -11.4774 H         1 <0>         0.0668
     66 H35         2.0773  -16.5831  -12.2628 H         1 <0>         0.0811
     67 H36         1.5573  -15.4782  -10.9678 H         1 <0>         0.0638
     68 H37         4.0010  -18.8647  -10.0377 H         1 <0>         0.0860
     69 H38         3.5044  -18.5607  -11.7197 H         1 <0>         0.0688
     70 H39         4.6895  -17.4897  -10.9342 H         1 <0>         0.0615
     71 H40         5.5255  -19.0709   -4.9698 H         1 <0>         0.0806
     72 H41         5.0546  -19.2147   -6.6803 H         1 <0>         0.0858
     73 H42         6.1163  -17.8849   -6.1583 H         1 <0>         0.0612
     74 H43         2.0009  -17.8907   -4.9857 H         1 <0>         0.0660
     75 H44         2.6315  -19.2182   -5.9899 H         1 <0>         0.0895
     76 H45         3.1325  -19.0743   -4.2879 H         1 <0>         0.0798
@<TRIPOS>BOND
     1    1    2 1
     2    1   33 1
     3    1   34 1
     4    1   35 1
     5    2    3 1
     6    2   36 1
     7    2   37 1
     8    3    4 1
     9    3   38 1
    10    3   39 1
    11    4    5 1
    12    4   40 1
    13    4   41 1
    14    5    6 1
    15    5   42 1
    16    5   43 1
    17    6    7 1
    18    6   44 1
    19    6   45 1
    20    7    8 1
    21    7   46 1
    22    7   47 1
    23    8    9 1
    24    8   48 1
    25    8   49 1
    26    9   10 1
    27    9   50 1
    28    9   51 1
    29   10   11 1
    30   10   52 1
    31   10   53 1
    32   11   12 1
    33   11   54 1
    34   11   55 1
    35   12   13 1
    36   12   56 1
    37   12   57 1
    38   13   14 1
    39   13   58 1
    40   13   59 1
    41   14   15 3
    42   15   16 1
    43   16   17 2
    44   16   18 1
    45   18   19 1
    46   18   23 1
    47   18   20 1
    48   20   21 1
    49   20   60 1
    50   20   61 1
    51   21   22 1
    52   22   23 1
    53   22   31 1
    54   22   32 1
    55   23   24 am
    56   24   25 2
    57   24   26 1
    58   26   27 1
    59   27   28 1
    60   27   29 1
    61   27   30 1
    62   28   62 1
    63   28   63 1
    64   28   64 1
    65   29   65 1
    66   29   66 1
    67   29   67 1
    68   30   68 1
    69   30   69 1
    70   30   70 1
    71   31   71 1
    72   31   72 1
    73   31   73 1
    74   32   74 1
    75   32   75 1
    76   32   76 1
@<TRIPOS>MOLECULE
ZINC13218530
   52    55     0     0     0
SMALL
USER_CHARGES
2-[[5-(4-chlorophenyl)-4-propyl-1,2,4-triazol-3-yl]sulfanylmethyl]-1-ethyl-benzimidazole-5-carboxylic acid
@<TRIPOS>ATOM
      1 C1          4.9075   11.4482   -6.0205 C.3       1 <0>        -0.1512
      2 C2          4.7908   11.6936   -4.5149 C.3       1 <0>        -0.1469
      3 C3          5.9283   10.9707   -3.7907 C.3       1 <0>         0.0904
      4 N1          5.8166   11.2057   -2.3489 N.pl3     1 <0>        -0.4539
      5 C4          6.4368   12.1917   -1.6168 C.2       1 <0>         0.2161
      6 N2          6.0655   12.0352   -0.3675 N.2       1 <0>        -0.2604
      7 N3          5.2630   11.0362   -0.2702 N.2       1 <0>        -0.2862
      8 C5          5.0726   10.4934   -1.4519 C.2       1 <0>         0.1625
      9 S1          4.0536    9.1015   -1.8109 S.3       1 <0>         0.0396
     10 C6          3.4323    8.7306   -0.1518 C.3       1 <0>        -0.0198
     11 C7          2.5115    7.5393   -0.2149 C.2       1 <0>         0.2542
     12 N4          2.8855    6.3009   -0.0804 N.2       1 <0>        -0.4565
     13 C8          1.8047    5.4849   -0.1904 C.ar      1 <0>         0.0290
     14 C9          1.6353    4.1027   -0.1281 C.ar      1 <0>        -0.0245
     15 C10         0.3631    3.5603   -0.2842 C.ar      1 <0>        -0.1233
     16 C11        -0.7380    4.3987   -0.5077 C.ar      1 <0>        -0.0396
     17 C12        -0.5764    5.7521   -0.5635 C.ar      1 <0>        -0.1418
     18 C13         0.6877    6.3117   -0.4101 C.ar      1 <0>         0.0651
     19 N5          1.1676    7.6031   -0.4201 N.pl3     1 <0>        -0.4815
     20 C14         0.3769    8.8208   -0.6153 C.3       1 <0>         0.1057
     21 C15         0.3153    9.1553   -2.1070 C.3       1 <0>        -0.1743
     22 C16         0.1737    2.0984   -0.2203 C.2       1 <0>         0.4935
     23 O1          1.1275    1.3699   -0.0317 O.co2     1 <0>        -0.6287
     24 C17         7.3531   13.2283   -2.1379 C.ar      1 <0>        -0.0064
     25 C18         8.2109   13.9056   -1.2698 C.ar      1 <0>        -0.0624
     26 C19         9.0663   14.8690   -1.7624 C.ar      1 <0>        -0.1052
     27 C20         9.0687   15.1712   -3.1138 C.ar      1 <0>        -0.0244
     28 C21         8.2165   14.5059   -3.9792 C.ar      1 <0>        -0.1051
     29 C22         7.3597   13.5375   -3.4990 C.ar      1 <0>        -0.1088
     30 Cl1        10.1438   16.3892   -3.7255 Cl        1 <0>        -0.0630
     31 H1          4.8437   10.3786   -6.2204 H         1 <0>         0.0643
     32 H2          4.0972   11.9632   -6.5365 H         1 <0>         0.0677
     33 H3          5.8649   11.8280   -6.3775 H         1 <0>         0.0597
     34 H4          3.8335   11.3138   -4.1580 H         1 <0>         0.0804
     35 H5          4.8547   12.7632   -4.3150 H         1 <0>         0.0741
     36 H6          6.8856   11.3505   -4.1476 H         1 <0>         0.1076
     37 H7          5.8644    9.9011   -3.9905 H         1 <0>         0.1054
     38 H8          2.8862    9.5920    0.2326 H         1 <0>         0.1151
     39 H9          4.2704    8.5075    0.5085 H         1 <0>         0.1315
     40 H10         2.4850    3.4575    0.0396 H         1 <0>         0.1368
     41 H11        -1.7217    3.9705   -0.6320 H         1 <0>         0.1408
     42 H12        -1.4312    6.3903   -0.7319 H         1 <0>         0.1171
     43 H13        -0.6329    8.6629   -0.2364 H         1 <0>         0.0920
     44 H14         0.8421    9.6464   -0.0767 H         1 <0>         0.0886
     45 H15         1.3250    9.3131   -2.4860 H         1 <0>         0.0678
     46 H16        -0.1500    8.3297   -2.6456 H         1 <0>         0.0654
     47 H17        -0.2731   10.0613   -2.2522 H         1 <0>         0.0743
     48 H18         8.2073   13.6734   -0.2150 H         1 <0>         0.1477
     49 H19         9.7329   15.3914   -1.0922 H         1 <0>         0.1431
     50 H20         8.2225   14.7461   -5.0321 H         1 <0>         0.1409
     51 H21         6.6950   13.0198   -4.1747 H         1 <0>         0.1424
     52 O2         -1.0571    1.5714   -0.3712 O.co2     1 <0>        -0.7547
@<TRIPOS>BOND
     1    1    2 1
     2    1   31 1
     3    1   32 1
     4    1   33 1
     5    2    3 1
     6    2   34 1
     7    2   35 1
     8    3    4 1
     9    3   36 1
    10    3   37 1
    11    4    8 1
    12    4    5 1
    13    5    6 2
    14    5   24 1
    15    6    7 1
    16    7    8 2
    17    8    9 1
    18    9   10 1
    19   10   11 1
    20   10   38 1
    21   10   39 1
    22   11   19 1
    23   11   12 2
    24   12   13 1
    25   13   18 ar
    26   13   14 ar
    27   14   15 ar
    28   14   40 1
    29   15   16 ar
    30   15   22 1
    31   16   17 ar
    32   16   41 1
    33   17   18 ar
    34   17   42 1
    35   18   19 1
    36   19   20 1
    37   20   21 1
    38   20   43 1
    39   20   44 1
    40   21   45 1
    41   21   46 1
    42   21   47 1
    43   22   23 2
    44   22   52 1
    45   24   29 ar
    46   24   25 ar
    47   25   26 ar
    48   25   48 1
    49   26   27 ar
    50   26   49 1
    51   27   28 ar
    52   27   30 1
    53   28   29 ar
    54   28   50 1
    55   29   51 1
@<TRIPOS>MOLECULE
ZINC16732536
   60    63     0     0     0
SMALL
USER_CHARGES
(4Z,5R)-4-[(4-allyloxyphenyl)-hydroxy-methylene]-1-(2-furylmethyl)-5-(4-isopropylphenyl)pyrrolidine-2,3-dione
@<TRIPOS>ATOM
      1 C1          3.2885    3.6000   -6.2870 C.3       1 <0>        -0.1439
      2 C2          2.9218    4.8583   -5.4975 C.3       1 <0>        -0.0519
      3 C3          1.8988    5.6763   -6.2881 C.3       1 <0>        -0.1430
      4 C4          2.3304    4.4630   -4.1689 C.ar      1 <0>        -0.0851
      5 C5          2.9361    4.8691   -2.9945 C.ar      1 <0>        -0.1187
      6 C6          2.3930    4.5073   -1.7759 C.ar      1 <0>        -0.1015
      7 C7          1.2440    3.7400   -1.7316 C.ar      1 <0>        -0.0698
      8 C8          0.6413    3.3296   -2.9059 C.ar      1 <0>        -0.0765
      9 C9          1.1819    3.6950   -4.1246 C.ar      1 <0>        -0.1133
     10 C10         0.6521    3.3457   -0.4030 C.3       1 <0>         0.2550
     11 H1          1.1536    3.9230    0.3876 H         1 <0>         0.0686
     12 C11         0.7963    1.8560   -0.1938 C.2       1 <0>        -0.4971
     13 C12         1.9743    1.1363   -0.1361 C.2       1 <0>         0.3888
     14 C13         3.2665    1.8390   -0.1405 C.ar      1 <0>        -0.0988
     15 C14         4.2855    1.4302   -1.0094 C.ar      1 <0>        -0.0444
     16 C15         5.4906    2.0946   -1.0136 C.ar      1 <0>        -0.2102
     17 C16         5.7014    3.1629   -0.1484 C.ar      1 <0>         0.1225
     18 C17         4.6943    3.5696    0.7203 C.ar      1 <0>        -0.1570
     19 C18         3.4837    2.9154    0.7283 C.ar      1 <0>        -0.0604
     20 O1          6.8936    3.8109   -0.1521 O.3       1 <0>        -0.3139
     21 C19         7.8841    3.3418   -1.0692 C.3       1 <0>         0.0852
     22 C20         9.1315    4.1760   -0.9313 C.2       1 <0>        -0.1545
     23 C21        10.3054    3.5964   -0.8857 C.2       1 <0>        -0.1803
     24 O2          1.9393   -0.2121   -0.0757 O.2       1 <0>        -0.6133
     25 C22        -0.5064    1.3512   -0.0700 C.2       1 <0>         0.3745
     26 O3         -0.8062    0.1852    0.1139 O.3       1 <0>        -0.4797
     27 C23        -1.4588    2.4867   -0.2022 C.2       1 <0>         0.4793
     28 O4         -2.6678    2.3907   -0.1477 O.2       1 <0>        -0.5283
     29 N1         -0.7851    3.6342   -0.3884 N.am      1 <0>        -0.5976
     30 C24        -1.3891    4.9582   -0.5565 C.3       1 <0>         0.2085
     31 C25        -1.6514    5.2087   -2.0192 C.2       1 <0>        -0.0251
     32 C26        -2.7814    4.8994   -2.6799 C.2       1 <0>        -0.1938
     33 C27        -2.5962    5.3068   -4.0211 C.2       1 <0>        -0.2196
     34 C28        -1.3641    5.8408   -4.0997 C.2       1 <0>        -0.0349
     35 O5         -0.7986    5.7839   -2.8827 O.3       1 <0>        -0.1568
     36 H2          4.0240    3.0119   -5.7185 H         1 <0>         0.0555
     37 H3          3.7203    3.8885   -7.2567 H         1 <0>         0.0519
     38 H4          2.3849    2.9951   -6.4533 H         1 <0>         0.0563
     39 H5          3.8232    5.4619   -5.3158 H         1 <0>         0.0711
     40 H6          1.6351    6.5809   -5.7205 H         1 <0>         0.0545
     41 H7          0.9952    5.0714   -6.4544 H         1 <0>         0.0558
     42 H8          2.3306    5.9648   -7.2579 H         1 <0>         0.0523
     43 H9          3.8333    5.4692   -3.0292 H         1 <0>         0.1088
     44 H10         2.8663    4.8245   -0.8583 H         1 <0>         0.1158
     45 H11        -0.2538    2.7264   -2.8714 H         1 <0>         0.1055
     46 H12         0.7085    3.3780   -5.0421 H         1 <0>         0.1071
     47 H13         4.1245    0.5974   -1.6780 H         1 <0>         0.1232
     48 H14         6.2757    1.7828   -1.6865 H         1 <0>         0.1210
     49 H15         4.8628    4.3999    1.3900 H         1 <0>         0.1265
     50 H16         2.7022    3.2320    1.4033 H         1 <0>         0.1315
     51 H17         8.1198    2.2903   -0.8481 H         1 <0>         0.0664
     52 H18         7.5002    3.4232   -2.0968 H         1 <0>         0.0716
     53 H19         9.0563    5.2717   -0.8689 H         1 <0>         0.1208
     54 H20        11.2159    4.2054   -0.7850 H         1 <0>         0.1082
     55 H21        10.3806    2.5007   -0.9481 H         1 <0>         0.1014
     56 H22        -0.7027    5.7261   -0.1703 H         1 <0>         0.0937
     57 H23        -2.3376    5.0016   -0.0011 H         1 <0>         0.1108
     58 H24        -3.6612    4.4294   -2.2657 H         1 <0>         0.1443
     59 H25        -3.3077    5.2085   -4.8276 H         1 <0>         0.1409
     60 H26        -0.9084    6.2494   -4.9894 H         1 <0>         0.1919
@<TRIPOS>BOND
     1    1    2 1
     2    1   36 1
     3    1   37 1
     4    1   38 1
     5    2    3 1
     6    2    4 1
     7    2   39 1
     8    3   40 1
     9    3   41 1
    10    3   42 1
    11    4    9 ar
    12    4    5 ar
    13    5    6 ar
    14    5   43 1
    15    6    7 ar
    16    6   44 1
    17    7    8 ar
    18    7   10 1
    19    8    9 ar
    20    8   45 1
    21    9   46 1
    22   10   12 1
    23   10   29 1
    24   10   11 1
    25   12   25 2
    26   12   13 1
    27   13   24 2
    28   13   14 1
    29   14   19 ar
    30   14   15 ar
    31   15   16 ar
    32   15   47 1
    33   16   17 ar
    34   16   48 1
    35   17   18 ar
    36   17   20 1
    37   18   19 ar
    38   18   49 1
    39   19   50 1
    40   20   21 1
    41   21   22 1
    42   21   51 1
    43   21   52 1
    44   22   23 2
    45   22   53 1
    46   23   54 1
    47   23   55 1
    48   25   27 1
    49   25   26 1
    50   27   29 am
    51   27   28 2
    52   29   30 1
    53   30   31 1
    54   30   56 1
    55   30   57 1
    56   31   35 1
    57   31   32 2
    58   32   33 1
    59   32   58 1
    60   33   34 2
    61   33   59 1
    62   34   35 1
    63   34   60 1
@<TRIPOS>MOLECULE
ZINC35693846
   56    59     0     0     0
SMALL
USER_CHARGES

@<TRIPOS>ATOM
      1 C1          0.1610    1.3032   -0.3260 C.3       1 <0>        -0.0916
      2 C2          0.1509   -0.2029   -0.2761 C.2       1 <0>         0.3007
      3 C3         -1.0478   -0.8770   -0.1426 C.2       1 <0>        -0.3915
      4 C4         -1.0058   -2.3882   -0.0978 C.3       1 <0>         0.2594
      5 H1         -1.4605   -2.7089    0.8395 H         1 <0>         0.0728
      6 N1          0.3311   -3.0314   -0.2018 N.pl3     1 <0>        -0.5126
      7 C5          0.6060   -4.3843   -0.1843 C.2       1 <0>         0.2329
      8 C6          1.8986   -4.7628   -0.2931 C.2       1 <0>        -0.3036
      9 S1          2.7327   -3.1935   -0.4211 S.3       1 <0>         0.1429
     10 C7          1.3956   -2.1833   -0.3284 C.2       1 <0>         0.3201
     11 N2          1.2894   -0.8709   -0.3658 N.2       1 <0>        -0.5962
     12 C8         -0.4693   -5.3777   -0.0517 C.2       1 <0>        -0.4686
     13 C9         -0.1667   -6.6805    0.1072 C.2       1 <0>         0.5030
     14 O1          1.1228   -7.0605    0.2797 O.3       1 <0>        -0.6994
     15 N3         -1.1729   -7.6316    0.0942 N.pl3     1 <0>        -0.6303
     16 C10        -2.5764   -7.2127    0.0618 C.3       1 <0>         0.1065
     17 C11        -0.8341   -9.0568    0.1129 C.3       1 <0>         0.1704
     18 C12        -0.8772   -9.5648    1.5311 C.ar      1 <0>        -0.0919
     19 C13         0.2291   -9.4274    2.3484 C.ar      1 <0>        -0.0874
     20 C14         0.1895   -9.8934    3.6492 C.ar      1 <0>        -0.1277
     21 C15        -0.9565  -10.4963    4.1329 C.ar      1 <0>        -0.1290
     22 C16        -2.0632  -10.6329    3.3158 C.ar      1 <0>        -0.1317
     23 C17        -2.0251  -10.1631    2.0163 C.ar      1 <0>        -0.1169
     24 C18        -1.8596   -2.9096   -1.2249 C.ar      1 <0>        -0.0694
     25 C19        -1.4054   -2.8336   -2.5283 C.ar      1 <0>        -0.0930
     26 C20        -2.1885   -3.3118   -3.5621 C.ar      1 <0>        -0.1233
     27 C21        -3.4257   -3.8665   -3.2926 C.ar      1 <0>        -0.1221
     28 C22        -3.8795   -3.9433   -1.9891 C.ar      1 <0>        -0.1241
     29 C23        -3.0945   -3.4689   -0.9548 C.ar      1 <0>        -0.0773
     30 C24        -2.2611   -0.1841   -0.0513 C.2       1 <0>         0.5346
     31 O2         -2.2715    1.0340   -0.0891 O.2       1 <0>        -0.5505
     32 O3         -3.4205   -0.8660    0.0788 O.3       1 <0>        -0.3558
     33 C25        -4.6204   -0.0949    0.1664 C.3       1 <0>         0.0416
     34 H2          1.1862    1.6562   -0.4379 H         1 <0>         0.0640
     35 H3         -0.4346    1.6427   -1.1734 H         1 <0>         0.0859
     36 H4         -0.2613    1.7002    0.5971 H         1 <0>         0.0861
     37 H5          2.3176   -5.7582   -0.3000 H         1 <0>         0.2326
     38 H6         -1.5020   -5.0630   -0.0815 H         1 <0>         0.0984
     39 H7         -2.9032   -7.1173   -0.9737 H         1 <0>         0.0365
     40 H8         -3.1896   -7.9574    0.5692 H         1 <0>         0.0466
     41 H9         -2.6805   -6.2518    0.5657 H         1 <0>         0.0623
     42 H10        -1.5525   -9.6090   -0.4929 H         1 <0>         0.0596
     43 H11         0.1676   -9.1974   -0.2931 H         1 <0>         0.0882
     44 H12         1.1245   -8.9563    1.9705 H         1 <0>         0.1362
     45 H13         1.0541   -9.7867    4.2876 H         1 <0>         0.1161
     46 H14        -0.9872  -10.8611    5.1490 H         1 <0>         0.1136
     47 H15        -2.9584  -11.1043    3.6936 H         1 <0>         0.1140
     48 H16        -2.8909  -10.2664    1.3791 H         1 <0>         0.1139
     49 H17        -0.4388   -2.4003   -2.7389 H         1 <0>         0.1034
     50 H18        -1.8339   -3.2518   -4.5805 H         1 <0>         0.1137
     51 H19        -4.0378   -4.2395   -4.1004 H         1 <0>         0.1139
     52 H20        -4.8462   -4.3763   -1.7785 H         1 <0>         0.1159
     53 H21        -3.4475   -3.5323    0.0639 H         1 <0>         0.1171
     54 H22        -5.4754   -0.7634    0.2676 H         1 <0>         0.0894
     55 H23        -4.5678    0.5617    1.0348 H         1 <0>         0.0509
     56 H24        -4.7333    0.5053   -0.7365 H         1 <0>         0.0509
@<TRIPOS>BOND
     1    1    2 1
     2    1   34 1
     3    1   35 1
     4    1   36 1
     5    2   11 1
     6    2    3 2
     7    3    4 1
     8    3   30 1
     9    4    5 1
    10    4    6 1
    11    4   24 1
    12    6   10 1
    13    6    7 1
    14    7    8 2
    15    7   12 1
    16    8    9 1
    17    8   37 1
    18    9   10 1
    19   10   11 2
    20   12   13 2
    21   12   38 1
    22   13   14 1
    23   13   15 1
    24   15   16 1
    25   15   17 1
    26   16   39 1
    27   16   40 1
    28   16   41 1
    29   17   18 1
    30   17   42 1
    31   17   43 1
    32   18   23 ar
    33   18   19 ar
    34   19   20 ar
    35   19   44 1
    36   20   21 ar
    37   20   45 1
    38   21   22 ar
    39   21   46 1
    40   22   23 ar
    41   22   47 1
    42   23   48 1
    43   24   29 ar
    44   24   25 ar
    45   25   26 ar
    46   25   49 1
    47   26   27 ar
    48   26   50 1
    49   27   28 ar
    50   27   51 1
    51   28   29 ar
    52   28   52 1
    53   29   53 1
    54   30   31 2
    55   30   32 1
    56   32   33 1
    57   33   54 1
    58   33   55 1
    59   33   56 1
@<TRIPOS>MOLECULE
ZINC39871572
   55    57     0     0     0
SMALL
USER_CHARGES

@<TRIPOS>ATOM
      1 C1          0.9367    2.4555    0.4169 C.3       1 <0>        -0.1506
      2 C2          0.7281    0.9419    0.3375 C.3       1 <0>        -0.1243
      3 C3          1.3460    0.4092   -0.9569 C.3       1 <0>        -0.1124
      4 C4          1.1374   -1.1044   -1.0364 C.3       1 <0>        -0.1289
      5 C5          1.7552   -1.6371   -2.3308 C.3       1 <0>         0.1080
      6 N1          1.5555   -3.0864   -2.4069 N.am      1 <0>        -0.5291
      7 C6          2.4868   -3.9151   -1.8772 C.2       1 <0>         0.4888
      8 C7          2.3340   -5.3045   -1.9285 C.2       1 <0>        -0.1576
      9 C8          1.1990   -5.8658   -2.5378 C.2       1 <0>         0.1611
     10 C9          0.2401   -5.0172   -3.0830 C.2       1 <0>        -0.2742
     11 C10         0.4469   -3.5711   -2.9971 C.2       1 <0>         0.5742
     12 O1         -0.3803   -2.8074   -3.4630 O.2       1 <0>        -0.5508
     13 C11        -0.9305   -5.5497   -3.7130 C.1       1 <0>         0.3108
     14 N2         -1.8591   -5.9721   -4.2127 N.1       1 <0>        -0.4764
     15 C12         1.0232   -7.3612   -2.6002 C.3       1 <0>        -0.1245
     16 N3          3.2844   -6.1125   -1.3888 N.2       1 <0>        -0.1532
     17 N4          4.3268   -5.5979   -0.8297 N.2       1 <0>        -0.2887
     18 C13         5.2808   -6.4088   -0.2880 C.ar      1 <0>         0.1419
     19 C14         5.1369   -7.7965   -0.3410 C.ar      1 <0>        -0.1532
     20 C15         6.1048   -8.6114    0.2079 C.ar      1 <0>        -0.0980
     21 C16         7.2244   -8.0635    0.8146 C.ar      1 <0>        -0.1464
     22 C17         7.3869   -6.6955    0.8788 C.ar      1 <0>        -0.0794
     23 C18         6.4229   -5.8515    0.3248 C.ar      1 <0>        -0.1364
     24 C19         6.5943   -4.3884    0.3845 C.2       1 <0>         0.4730
     25 O2          6.3964   -3.7951    1.4273 O.2       1 <0>        -0.4538
     26 C20         7.0065   -3.6429   -0.8230 C.ar      1 <0>        -0.1269
     27 C21         7.0660   -2.2476   -0.7998 C.ar      1 <0>        -0.0527
     28 C22         7.4516   -1.5582   -1.9304 C.ar      1 <0>        -0.1356
     29 C23         7.7790   -2.2456   -3.0860 C.ar      1 <0>        -0.0963
     30 C24         7.7218   -3.6280   -3.1162 C.ar      1 <0>        -0.1372
     31 C25         7.3439   -4.3305   -1.9909 C.ar      1 <0>        -0.0568
     32 O3          3.5805   -3.3915   -1.2907 O.3       1 <0>        -0.5628
     33 H1          2.0041    2.6763    0.4061 H         1 <0>         0.0529
     34 H2          0.4581    2.9336   -0.4377 H         1 <0>         0.0520
     35 H3          0.4966    2.8350    1.3391 H         1 <0>         0.0502
     36 H4          1.2068    0.4638    1.1921 H         1 <0>         0.0611
     37 H5         -0.3392    0.7211    0.3483 H         1 <0>         0.0596
     38 H6          0.8674    0.8873   -1.8116 H         1 <0>         0.0611
     39 H7          2.4133    0.6300   -0.9678 H         1 <0>         0.0631
     40 H8          1.6160   -1.5825   -0.1817 H         1 <0>         0.0681
     41 H9          0.0700   -1.3252   -1.0255 H         1 <0>         0.0626
     42 H10         1.2766   -1.1590   -3.1854 H         1 <0>         0.0833
     43 H11         2.8226   -1.4163   -2.3416 H         1 <0>         0.0913
     44 H12         0.4871   -7.7014   -1.7142 H         1 <0>         0.0843
     45 H13         0.4542   -7.6233   -3.4922 H         1 <0>         0.0673
     46 H14         2.0013   -7.8407   -2.6394 H         1 <0>         0.0858
     47 H15         4.2676   -8.2317   -0.8115 H         1 <0>         0.1330
     48 H16         5.9895   -9.6843    0.1650 H         1 <0>         0.1182
     49 H17         7.9750   -8.7129    1.2406 H         1 <0>         0.1207
     50 H18         8.2621   -6.2773    1.3537 H         1 <0>         0.1232
     51 H19         6.8104   -1.7099    0.1012 H         1 <0>         0.1269
     52 H20         7.4977   -0.4793   -1.9140 H         1 <0>         0.1218
     53 H21         8.0803   -1.7008   -3.9685 H         1 <0>         0.1194
     54 H22         7.9783   -4.1582   -4.0214 H         1 <0>         0.1208
     55 H23         7.3043   -5.4095   -2.0144 H         1 <0>         0.1222
@<TRIPOS>BOND
     1    1    2 1
     2    1   33 1
     3    1   34 1
     4    1   35 1
     5    2    3 1
     6    2   36 1
     7    2   37 1
     8    3    4 1
     9    3   38 1
    10    3   39 1
    11    4    5 1
    12    4   40 1
    13    4   41 1
    14    5    6 1
    15    5   42 1
    16    5   43 1
    17    6   11 am
    18    6    7 1
    19    7    8 2
    20    7   32 1
    21    8    9 1
    22    8   16 1
    23    9   10 2
    24    9   15 1
    25   10   11 1
    26   10   13 1
    27   11   12 2
    28   13   14 3
    29   15   44 1
    30   15   45 1
    31   15   46 1
    32   16   17 2
    33   17   18 1
    34   18   23 ar
    35   18   19 ar
    36   19   20 ar
    37   19   47 1
    38   20   21 ar
    39   20   48 1
    40   21   22 ar
    41   21   49 1
    42   22   23 ar
    43   22   50 1
    44   23   24 1
    45   24   25 2
    46   24   26 1
    47   26   31 ar
    48   26   27 ar
    49   27   28 ar
    50   27   51 1
    51   28   29 ar
    52   28   52 1
    53   29   30 ar
    54   29   53 1
    55   30   31 ar
    56   30   54 1
    57   31   55 1
@<TRIPOS>MOLECULE
ZINC59364584
   55    57     0     0     0
SMALL
USER_CHARGES

@<TRIPOS>ATOM
      1 C1         -1.6119    1.2906   -0.9543 C.3       1 <0>        -0.1515
      2 C2         -1.3838   -0.2197   -0.8658 C.3       1 <0>         0.0519
      3 O1         -0.2766   -0.5835   -1.6926 O.3       1 <0>        -0.3149
      4 C3          0.0608   -1.8978   -1.7275 C.ar      1 <0>         0.1753
      5 C4         -0.6681   -2.8198   -0.9813 C.ar      1 <0>        -0.2388
      6 C5         -0.3392   -4.1444   -1.0077 C.ar      1 <0>        -0.0255
      7 C6          0.7385   -4.5847   -1.7893 C.ar      1 <0>        -0.1316
      8 C7          1.4765   -3.6544   -2.5449 C.ar      1 <0>         0.1915
      9 C8          1.1271   -2.3162   -2.5115 C.ar      1 <0>        -0.2498
     10 O2          2.5215   -4.0683   -3.3051 O.3       1 <0>        -0.3005
     11 C9          3.2229   -3.0664   -4.0443 C.3       1 <0>         0.0522
     12 C10         4.3592   -3.7179   -4.8350 C.3       1 <0>        -0.1535
     13 C11         1.0943   -6.0041   -1.8189 C.2       1 <0>         0.0170
     14 C12         0.6575   -6.8380   -0.8304 C.2       1 <0>        -0.1437
     15 C13         0.7698   -8.2452   -0.7592 C.2       1 <0>         0.3544
     16 O3          1.3720   -8.9403   -1.7510 O.3       1 <0>        -0.5805
     17 C14         0.2560   -8.8918    0.3365 C.2       1 <0>        -0.4229
     18 C15        -0.3792   -8.0497    1.3619 C.2       1 <0>         0.3099
     19 S1         -0.1839   -6.4112    0.6828 S.3       1 <0>        -0.1180
     20 N1         -0.9450   -8.4135    2.4987 N.2       1 <0>        -0.5033
     21 C16        -1.4852   -7.4700    3.3251 C.ar      1 <0>         0.1452
     22 C17        -0.7866   -6.2893    3.5942 C.ar      1 <0>        -0.1612
     23 C18        -1.3384   -5.3408    4.4293 C.ar      1 <0>        -0.0842
     24 C19        -2.5815   -5.5556    5.0008 C.ar      1 <0>        -0.0701
     25 C20        -3.2792   -6.7229    4.7386 C.ar      1 <0>        -0.0916
     26 C21        -2.7419   -7.6778    3.9013 C.ar      1 <0>        -0.1178
     27 Cl1        -3.2682   -4.3562    6.0513 Cl        1 <0>        -0.0910
     28 C22         0.3355  -10.3455    0.4776 C.2       1 <0>         0.5369
     29 O4          0.8679  -11.0126   -0.3894 O.2       1 <0>        -0.5311
     30 O5         -0.1815  -10.9465    1.5693 O.3       1 <0>        -0.3413
     31 C23        -0.0685  -12.3692    1.6413 C.3       1 <0>         0.0631
     32 C24        -0.7067  -12.8664    2.9399 C.3       1 <0>        -0.1436
     33 H1         -0.7178    1.8136   -0.6150 H         1 <0>         0.0654
     34 H2         -1.8239    1.5661   -1.9874 H         1 <0>         0.0650
     35 H3         -2.4565    1.5682   -0.3237 H         1 <0>         0.0785
     36 H4         -1.1718   -0.4952    0.1673 H         1 <0>         0.0658
     37 H5         -2.2780   -0.7426   -1.2051 H         1 <0>         0.0650
     38 H6         -1.4986   -2.4849   -0.3777 H         1 <0>         0.1315
     39 H7         -0.9091   -4.8536   -0.4258 H         1 <0>         0.1532
     40 H8          1.6863   -1.5970   -3.0915 H         1 <0>         0.1370
     41 H9          2.5357   -2.5754   -4.7333 H         1 <0>         0.0636
     42 H10         3.6355   -2.3291   -3.3557 H         1 <0>         0.0636
     43 H11         5.0464   -4.2088   -4.1460 H         1 <0>         0.0685
     44 H12         3.9465   -4.4552   -5.5236 H         1 <0>         0.0684
     45 H13         4.8942   -2.9537   -5.3988 H         1 <0>         0.0768
     46 H14         1.7024   -6.3917   -2.6229 H         1 <0>         0.1514
     47 H15         0.1830   -6.1207    3.1495 H         1 <0>         0.1344
     48 H16        -0.7997   -4.4284    4.6384 H         1 <0>         0.1265
     49 H17        -4.2481   -6.8839    5.1876 H         1 <0>         0.1286
     50 H18        -3.2890   -8.5856    3.6941 H         1 <0>         0.1326
     51 H19        -0.5802  -12.8179    0.7899 H         1 <0>         0.0524
     52 H20         0.9842  -12.6515    1.6224 H         1 <0>         0.0522
     53 H21        -0.6205  -13.9516    2.9948 H         1 <0>         0.0656
     54 H22        -0.1949  -12.4177    3.7913 H         1 <0>         0.0615
     55 H23        -1.7593  -12.5841    2.9587 H         1 <0>         0.0616
@<TRIPOS>BOND
     1    1    2 1
     2    1   33 1
     3    1   34 1
     4    1   35 1
     5    2    3 1
     6    2   36 1
     7    2   37 1
     8    3    4 1
     9    4    9 ar
    10    4    5 ar
    11    5    6 ar
    12    5   38 1
    13    6    7 ar
    14    6   39 1
    15    7    8 ar
    16    7   13 1
    17    8    9 ar
    18    8   10 1
    19    9   40 1
    20   10   11 1
    21   11   12 1
    22   11   41 1
    23   11   42 1
    24   12   43 1
    25   12   44 1
    26   12   45 1
    27   13   14 2
    28   13   46 1
    29   14   19 1
    30   14   15 1
    31   15   16 1
    32   15   17 2
    33   17   18 1
    34   17   28 1
    35   18   20 2
    36   18   19 1
    37   20   21 1
    38   21   26 ar
    39   21   22 ar
    40   22   23 ar
    41   22   47 1
    42   23   24 ar
    43   23   48 1
    44   24   25 ar
    45   24   27 1
    46   25   26 ar
    47   25   49 1
    48   26   50 1
    49   28   29 2
    50   28   30 1
    51   30   31 1
    52   31   32 1
    53   31   51 1
    54   31   52 1
    55   32   53 1
    56   32   54 1
    57   32   55 1
@<TRIPOS>MOLECULE
ZINC13055405
   55    58     0     0     0
SMALL
USER_CHARGES
2-[2-[2-(1-benzyl-2,5-dimethyl-pyrrol-3-yl)-2-oxo-ethyl]sulfanyl-4-oxo-quinazolin-3-yl]acetic acid
@<TRIPOS>ATOM
      1 C1         -2.5277    1.3872    0.0200 C.3       1 <0>        -0.0882
      2 C2         -1.0989    1.8663    0.0167 C.2       1 <0>         0.0072
      3 C3         -0.0126    1.0758    0.0080 C.2       1 <0>        -0.1451
      4 C4          1.1513    1.9722    0.0017 C.2       1 <0>        -0.2567
      5 C5          0.6397    3.2561    0.0135 C.2       1 <0>         0.1182
      6 N1         -0.7025    3.1724    0.0258 N.pl3     1 <0>        -0.4284
      7 C6         -1.6113    4.3214    0.0399 C.3       1 <0>         0.1378
      8 C7         -1.9364    4.7221   -1.3760 C.ar      1 <0>        -0.1143
      9 C8         -1.1500    5.6528   -2.0288 C.ar      1 <0>        -0.0993
     10 C9         -1.4454    6.0168   -3.3293 C.ar      1 <0>        -0.1189
     11 C10        -2.5334    5.4579   -3.9732 C.ar      1 <0>        -0.1103
     12 C11        -3.3229    4.5311   -3.3186 C.ar      1 <0>        -0.1205
     13 C12        -3.0245    4.1632   -2.0200 C.ar      1 <0>        -0.1015
     14 C13         1.4461    4.5292    0.0121 C.3       1 <0>        -0.0988
     15 C14         2.5635    1.5848   -0.0143 C.2       1 <0>         0.4429
     16 O1          3.4266    2.4378   -0.0184 O.2       1 <0>        -0.4543
     17 C15         2.9450    0.1269   -0.0258 C.3       1 <0>        -0.1546
     18 S1          4.7485   -0.0247   -0.0444 S.3       1 <0>         0.0695
     19 C16         4.9079   -1.7795   -0.0552 C.2       1 <0>         0.3848
     20 N2          3.8174   -2.5057   -0.0428 N.2       1 <0>        -0.5575
     21 C17         3.8655   -3.8529   -0.0548 C.ar      1 <0>         0.1854
     22 C18         2.7018   -4.6279   -0.0464 C.ar      1 <0>        -0.1239
     23 C19         2.7970   -5.9909   -0.0536 C.ar      1 <0>        -0.0745
     24 C20         4.0348   -6.6209   -0.0700 C.ar      1 <0>        -0.1584
     25 C21         5.1909   -5.8902   -0.0785 C.ar      1 <0>        -0.0333
     26 C22         5.1233   -4.4977   -0.0710 C.ar      1 <0>        -0.2043
     27 C23         6.3315   -3.6619   -0.0791 C.2       1 <0>         0.5556
     28 O2          7.4429   -4.1583   -0.0935 O.2       1 <0>        -0.5085
     29 N3          6.1624   -2.3191   -0.0704 N.am      1 <0>        -0.4950
     30 C24         7.3331   -1.4384   -0.0779 C.3       1 <0>         0.0383
     31 C25         7.7488   -1.1433    1.3402 C.2       1 <0>         0.4627
     32 O3          7.1306   -1.6198    2.2626 O.co2     1 <0>        -0.6196
     33 H1         -2.8681    1.2666    1.0484 H         1 <0>         0.0713
     34 H2         -3.1572    2.1181   -0.4877 H         1 <0>         0.0632
     35 H3         -2.5913    0.4305   -0.4984 H         1 <0>         0.0822
     36 H4          0.0021   -0.0041    0.0020 H         1 <0>         0.1502
     37 H5         -2.5298    4.0518    0.5612 H         1 <0>         0.1009
     38 H6         -1.1338    5.1561    0.5532 H         1 <0>         0.1011
     39 H7         -0.3026    6.0928   -1.5241 H         1 <0>         0.1242
     40 H8         -0.8287    6.7411   -3.8406 H         1 <0>         0.1256
     41 H9         -2.7668    5.7455   -4.9877 H         1 <0>         0.1239
     42 H10        -4.1732    4.0947   -3.8216 H         1 <0>         0.1246
     43 H11        -3.6415    3.4394   -1.5084 H         1 <0>         0.1243
     44 H12         1.6308    4.8413   -1.0158 H         1 <0>         0.0798
     45 H13         0.8937    5.3098    0.5352 H         1 <0>         0.0639
     46 H14         2.3973    4.3573    0.5161 H         1 <0>         0.1023
     47 H15         2.5815   -0.3192    0.7920 H         1 <0>         0.1158
     48 H16         2.5310   -0.3500   -0.9142 H         1 <0>         0.1286
     49 H17         1.7326   -4.1516   -0.0344 H         1 <0>         0.1336
     50 H18         1.8966   -6.5871   -0.0468 H         1 <0>         0.1267
     51 H19         4.0849   -7.6997   -0.0757 H         1 <0>         0.1261
     52 H20         6.1491   -6.3883   -0.0912 H         1 <0>         0.1331
     53 H21         8.1533   -1.9286   -0.6024 H         1 <0>         0.1102
     54 H22         7.0833   -0.5063   -0.5847 H         1 <0>         0.1020
     55 O4          8.8059   -0.3511    1.5787 O.co2     1 <0>        -0.7502
@<TRIPOS>BOND
     1    1    2 1
     2    1   33 1
     3    1   34 1
     4    1   35 1
     5    2    6 1
     6    2    3 2
     7    3    4 1
     8    3   36 1
     9    4    5 2
    10    4   15 1
    11    5    6 1
    12    5   14 1
    13    6    7 1
    14    7    8 1
    15    7   37 1
    16    7   38 1
    17    8   13 ar
    18    8    9 ar
    19    9   10 ar
    20    9   39 1
    21   10   11 ar
    22   10   40 1
    23   11   12 ar
    24   11   41 1
    25   12   13 ar
    26   12   42 1
    27   13   43 1
    28   14   44 1
    29   14   45 1
    30   14   46 1
    31   15   16 2
    32   15   17 1
    33   17   18 1
    34   17   47 1
    35   17   48 1
    36   18   19 1
    37   19   29 1
    38   19   20 2
    39   20   21 1
    40   21   26 ar
    41   21   22 ar
    42   22   23 ar
    43   22   49 1
    44   23   24 ar
    45   23   50 1
    46   24   25 ar
    47   24   51 1
    48   25   26 ar
    49   25   52 1
    50   26   27 1
    51   27   28 2
    52   27   29 am
    53   29   30 1
    54   30   31 1
    55   30   53 1
    56   30   54 1
    57   31   32 2
    58   31   55 1
@<TRIPOS>MOLECULE
ZINC13443704
   50    52     0     0     0
SMALL
USER_CHARGES
(2S)-2-[3-[2-[[(1S)-1-(4-fluorophenyl)ethyl]-methyl-amino]-2-oxo-ethyl]sulfanyl-5-(2-thienyl)-1,2,4-triazol-4-yl]propanoic acid
@<TRIPOS>ATOM
      1 C1          3.8267   14.0907   -1.1230 C.3       1 <0>        -0.1576
      2 C2          4.3486   13.0459   -0.1346 C.3       1 <0>         0.1774
      3 H1          5.2770   12.6188   -0.5138 H         1 <0>         0.1138
      4 C3          4.6044   13.6997    1.1989 C.ar      1 <0>        -0.1060
      5 C4          3.5505   14.2210    1.9260 C.ar      1 <0>        -0.0854
      6 C5          3.7832   14.8158    3.1516 C.ar      1 <0>        -0.1541
      7 C6          5.0738   14.8998    3.6458 C.ar      1 <0>         0.0978
      8 C7          6.1293   14.3822    2.9141 C.ar      1 <0>        -0.1516
      9 C8          5.8934   13.7826    1.6916 C.ar      1 <0>        -0.0734
     10 F1          5.3032   15.4866    4.8409 F         1 <0>        -0.1410
     11 N1          3.3520   11.9841    0.0253 N.am      1 <0>        -0.6066
     12 C9          1.9757   12.3212    0.3970 C.3       1 <0>         0.0649
     13 C10         3.7014   10.6971   -0.1696 C.2       1 <0>         0.5397
     14 O1          4.8409   10.4180   -0.4774 O.2       1 <0>        -0.5145
     15 C11         2.6763    9.6048   -0.0052 C.3       1 <0>        -0.1662
     16 S1          3.4469    7.9999   -0.3319 S.3       1 <0>         0.1231
     17 C12         2.0639    6.9386   -0.0755 C.2       1 <0>         0.1575
     18 N2          0.8491    7.3095    0.2592 N.2       1 <0>        -0.3025
     19 N3          0.0855    6.2813    0.3643 N.2       1 <0>        -0.2640
     20 C13         0.7669    5.1876    0.1027 C.2       1 <0>         0.2523
     21 N4          2.0574    5.5755   -0.1819 N.pl3     1 <0>        -0.4133
     22 C14         3.1865    4.7088   -0.5285 C.3       1 <0>         0.0748
     23 H2          2.8589    3.6692   -0.5323 H         1 <0>         0.1013
     24 C15         3.7100    5.0837   -1.9164 C.3       1 <0>        -0.1464
     25 C16         4.2855    4.8853    0.4875 C.2       1 <0>         0.4593
     26 O2          5.3756    5.2714    0.1373 O.co2     1 <0>        -0.5991
     27 C17         0.2500    3.8096    0.1174 C.2       1 <0>        -0.0783
     28 C18        -1.0511    3.3741    0.1213 C.2       1 <0>        -0.1191
     29 C19        -1.2941    2.0190    0.1303 C.2       1 <0>        -0.1569
     30 C20        -0.2439    1.1578    0.1453 C.2       1 <0>        -0.1853
     31 S2          1.1529    2.2694    0.1343 S.3       1 <0>         0.1010
     32 H3          4.5682   14.8807   -1.2419 H         1 <0>         0.0724
     33 H4          3.6417   13.6178   -2.0875 H         1 <0>         0.0673
     34 H5          2.8983   14.5178   -0.7437 H         1 <0>         0.0623
     35 H6          2.5445   14.1600    1.5379 H         1 <0>         0.1365
     36 H7          2.9591   15.2187    3.7217 H         1 <0>         0.1353
     37 H8          7.1364   14.4475    3.2985 H         1 <0>         0.1366
     38 H9          6.7165   13.3788    1.1207 H         1 <0>         0.1362
     39 H10         1.8601   12.2369    1.4776 H         1 <0>         0.0630
     40 H11         1.7553   13.3426    0.0867 H         1 <0>         0.0796
     41 H12         1.2875   11.6350   -0.0967 H         1 <0>         0.0788
     42 H13         1.8587    9.7651   -0.7081 H         1 <0>         0.1228
     43 H14         2.2883    9.6210    1.0133 H         1 <0>         0.1236
     44 H15         4.0377    6.1233   -1.9125 H         1 <0>         0.0761
     45 H16         4.5501    4.4389   -2.1742 H         1 <0>         0.0858
     46 H17         2.9151    4.9560   -2.6512 H         1 <0>         0.0512
     47 H18        -1.8683    4.0802    0.1130 H         1 <0>         0.1428
     48 H19        -2.3074    1.6453    0.1288 H         1 <0>         0.1367
     49 H20        -0.2519    0.0779    0.1562 H         1 <0>         0.1874
     50 O3          4.0534    4.6137    1.7813 O.co2     1 <0>        -0.7360
@<TRIPOS>BOND
     1    1    2 1
     2    1   32 1
     3    1   33 1
     4    1   34 1
     5    2    3 1
     6    2    4 1
     7    2   11 1
     8    4    9 ar
     9    4    5 ar
    10    5    6 ar
    11    5   35 1
    12    6    7 ar
    13    6   36 1
    14    7    8 ar
    15    7   10 1
    16    8    9 ar
    17    8   37 1
    18    9   38 1
    19   11   12 1
    20   11   13 am
    21   12   39 1
    22   12   40 1
    23   12   41 1
    24   13   14 2
    25   13   15 1
    26   15   16 1
    27   15   42 1
    28   15   43 1
    29   16   17 1
    30   17   21 1
    31   17   18 2
    32   18   19 1
    33   19   20 2
    34   20   21 1
    35   20   27 1
    36   21   22 1
    37   22   23 1
    38   22   24 1
    39   22   25 1
    40   24   44 1
    41   24   45 1
    42   24   46 1
    43   25   26 2
    44   25   50 1
    45   27   31 1
    46   27   28 2
    47   28   29 1
    48   28   47 1
    49   29   30 2
    50   29   48 1
    51   30   31 1
    52   30   49 1
@<TRIPOS>MOLECULE
ZINC33522806
   62    65     0     0     0
SMALL
USER_CHARGES
(2S)-2-(4-tert-butylphenyl)-4-hydroxy-3-(7-methoxybenzofuran-2-carbonyl)-1-(2-methoxyethyl)-2H-pyrrol-5-one
@<TRIPOS>ATOM
      1 C1          4.3680   -3.9492    4.5538 C.3       1 <0>        -0.1369
      2 C2          2.9980   -3.3006    4.7617 C.3       1 <0>        -0.0263
      3 C3          3.0656   -2.3340    5.9457 C.3       1 <0>        -0.1446
      4 C4          1.9581   -4.3858    5.0479 C.3       1 <0>        -0.1390
      5 C5          2.6061   -2.5449    3.5181 C.ar      1 <0>        -0.0819
      6 C6          2.4803   -3.2127    2.3143 C.ar      1 <0>        -0.1174
      7 C7          2.1209   -2.5196    1.1736 C.ar      1 <0>        -0.1144
      8 C8          1.8873   -1.1585    1.2367 C.ar      1 <0>        -0.0775
      9 C9          2.0182   -0.4898    2.4394 C.ar      1 <0>        -0.0873
     10 C10         2.3721   -1.1840    3.5813 C.ar      1 <0>        -0.1214
     11 C11         1.4959   -0.4028   -0.0069 C.3       1 <0>         0.2678
     12 H1          1.7484   -1.0230   -0.8796 H         1 <0>         0.0679
     13 C12         0.0269   -0.0520    0.0389 C.2       1 <0>        -0.5003
     14 C13        -0.0533    1.2984    0.0034 C.2       1 <0>         0.2724
     15 C14         1.3093    1.8642   -0.0646 C.2       1 <0>         0.5189
     16 O1          1.5704    3.0501   -0.1090 O.2       1 <0>        -0.5218
     17 N1          2.2189    0.8729   -0.0709 N.am      1 <0>        -0.6074
     18 C15         3.6734    1.0375   -0.1302 C.3       1 <0>         0.1381
     19 C16         4.1257    1.0533   -1.5917 C.3       1 <0>         0.0415
     20 O2          3.5879    2.2051   -2.2444 O.3       1 <0>        -0.3694
     21 C17         3.9522    2.3158   -3.6217 C.3       1 <0>         0.0310
     22 O3         -1.2005    2.0164    0.0214 O.3       1 <0>        -0.6514
     23 C18        -1.0957   -0.9936    0.1085 C.2       1 <0>         0.5394
     24 O4         -1.8070   -1.0214    1.0969 O.2       1 <0>        -0.4460
     25 C19        -1.3622   -1.9032   -1.0139 C.2       1 <0>         0.0095
     26 C20        -2.4262   -2.7474   -1.1032 C.2       1 <0>        -0.1661
     27 C21        -2.2806   -3.4484   -2.3773 C.ar      1 <0>        -0.0974
     28 C22        -3.0295   -4.4243   -3.0433 C.ar      1 <0>        -0.1042
     29 C23        -2.6133   -4.8870   -4.2591 C.ar      1 <0>        -0.1023
     30 C24        -1.4519   -4.3960   -4.8399 C.ar      1 <0>        -0.1962
     31 C25        -0.6965   -3.4310   -4.2000 C.ar      1 <0>         0.1453
     32 C26        -1.1027   -2.9449   -2.9578 C.ar      1 <0>         0.0329
     33 O5         -0.5927   -2.0244   -2.1152 O.3       1 <0>        -0.1529
     34 O6          0.4386   -2.9577   -4.7799 O.3       1 <0>        -0.3098
     35 C27         0.7924   -3.5021   -6.0529 C.3       1 <0>         0.0244
     36 H2          4.3193   -4.6441    3.7025 H         1 <0>         0.0557
     37 H3          4.6541   -4.5008    5.4615 H         1 <0>         0.0537
     38 H4          5.1156   -3.1690    4.3479 H         1 <0>         0.0552
     39 H5          2.0806   -1.8677    6.0951 H         1 <0>         0.0600
     40 H6          3.8132   -1.5538    5.7398 H         1 <0>         0.0581
     41 H7          3.3517   -2.8856    6.8534 H         1 <0>         0.0537
     42 H8          0.9731   -3.9195    5.1974 H         1 <0>         0.0578
     43 H9          2.2442   -4.9375    5.9556 H         1 <0>         0.0538
     44 H10         1.9094   -5.0806    4.1965 H         1 <0>         0.0560
     45 H11         2.6632   -4.2760    2.2650 H         1 <0>         0.1137
     46 H12         2.0229   -3.0412    0.2331 H         1 <0>         0.1158
     47 H13         1.8400    0.5743    2.4878 H         1 <0>         0.1167
     48 H14         2.4701   -0.6623    4.5218 H         1 <0>         0.1203
     49 H15         3.9550    1.9857    0.3511 H         1 <0>         0.0864
     50 H16         4.1587    0.2016    0.3948 H         1 <0>         0.0900
     51 H17         5.2243    1.0868   -1.6352 H         1 <0>         0.0526
     52 H18         3.7663    0.1445   -2.0966 H         1 <0>         0.0515
     53 H19         3.5007    3.2235   -4.0486 H         1 <0>         0.0833
     54 H20         3.5891    1.4334   -4.1691 H         1 <0>         0.0377
     55 H21         5.0472    2.3757   -3.7077 H         1 <0>         0.0346
     56 H22        -3.2177   -2.8734   -0.3794 H         1 <0>         0.1669
     57 H23        -3.9338   -4.8111   -2.5972 H         1 <0>         0.1289
     58 H24        -3.1923   -5.6403   -4.7727 H         1 <0>         0.1292
     59 H25        -1.1355   -4.7715   -5.8018 H         1 <0>         0.1366
     60 H26         1.7241   -3.0353   -6.4052 H         1 <0>         0.1014
     61 H27        -0.0136   -3.3018   -6.7741 H         1 <0>         0.0567
     62 H28         0.9391   -4.5882   -5.9592 H         1 <0>         0.0562
@<TRIPOS>BOND
     1    1    2 1
     2    1   36 1
     3    1   37 1
     4    1   38 1
     5    2    3 1
     6    2    4 1
     7    2    5 1
     8    3   39 1
     9    3   40 1
    10    3   41 1
    11    4   42 1
    12    4   43 1
    13    4   44 1
    14    5   10 ar
    15    5    6 ar
    16    6    7 ar
    17    6   45 1
    18    7    8 ar
    19    7   46 1
    20    8    9 ar
    21    8   11 1
    22    9   10 ar
    23    9   47 1
    24   10   48 1
    25   11   12 1
    26   11   17 1
    27   11   13 1
    28   13   14 2
    29   13   23 1
    30   14   15 1
    31   14   22 1
    32   15   16 2
    33   15   17 am
    34   17   18 1
    35   18   19 1
    36   18   49 1
    37   18   50 1
    38   19   20 1
    39   19   51 1
    40   19   52 1
    41   20   21 1
    42   21   53 1
    43   21   54 1
    44   21   55 1
    45   23   24 2
    46   23   25 1
    47   25   33 1
    48   25   26 2
    49   26   27 1
    50   26   56 1
    51   27   32 ar
    52   27   28 ar
    53   28   29 ar
    54   28   57 1
    55   29   30 ar
    56   29   58 1
    57   30   31 ar
    58   30   59 1
    59   31   32 ar
    60   31   34 1
    61   32   33 1
    62   34   35 1
    63   35   60 1
    64   35   61 1
    65   35   62 1
@<TRIPOS>MOLECULE
ZINC35695899
   54    57     0     0     0
SMALL
USER_CHARGES

@<TRIPOS>ATOM
      1 C1          0.4093    1.1695    0.7836 C.3       1 <0>        -0.0915
      2 C2          0.2951   -0.2950    0.4473 C.2       1 <0>         0.3039
      3 C3         -0.9486   -0.8957    0.4104 C.2       1 <0>        -0.3932
      4 C4         -1.0112   -2.3673    0.0674 C.3       1 <0>         0.3062
      5 H1         -1.6432   -2.4801   -0.8134 H         1 <0>         0.0838
      6 N1          0.2796   -3.0543   -0.2043 N.pl3     1 <0>        -0.5151
      7 C5          0.4607   -4.3826   -0.5344 C.2       1 <0>         0.2334
      8 C6          1.7256   -4.8100   -0.7429 C.2       1 <0>        -0.3037
      9 S1          2.6670   -3.3221   -0.4702 S.3       1 <0>         0.1490
     10 C7          1.4014   -2.2783   -0.1156 C.2       1 <0>         0.3211
     11 N2          1.3861   -0.9957    0.1839 N.2       1 <0>        -0.5940
     12 C8         -0.6819   -5.2996   -0.6543 C.2       1 <0>        -0.4602
     13 C9         -0.4716   -6.6164   -0.8439 C.2       1 <0>         0.5190
     14 O1          0.7874   -7.1156   -0.7944 O.3       1 <0>        -0.7014
     15 N3         -1.5418   -7.4601   -1.0894 N.pl3     1 <0>        -0.6363
     16 C10        -2.9518   -7.0528   -1.1757 C.3       1 <0>         0.1230
     17 C11        -3.7818   -8.3274   -1.4363 C.3       1 <0>        -0.1321
     18 C12        -2.8536   -9.4582   -0.9194 C.3       1 <0>        -0.1347
     19 C13        -1.4553   -8.9146   -1.3139 C.3       1 <0>         0.1213
     20 C14        -1.6844   -3.0819    1.2108 C.2       1 <0>        -0.1203
     21 C15        -2.9352   -3.6001    1.2755 C.2       1 <0>        -0.1177
     22 C16        -3.3444   -4.2203    2.4410 C.2       1 <0>        -0.1325
     23 C17        -2.4828   -4.2920    3.4849 C.2       1 <0>        -0.1950
     24 S2         -1.0387   -3.4726    2.8287 S.3       1 <0>         0.0313
     25 C18        -2.1125   -0.1662    0.6819 C.2       1 <0>         0.5381
     26 O2         -2.0387    1.0190    0.9565 O.2       1 <0>        -0.5510
     27 O3         -3.3176   -0.7762    0.6396 O.3       1 <0>        -0.3438
     28 C19        -4.4627    0.0288    0.9274 C.3       1 <0>         0.0729
     29 C20        -5.7262   -0.8288    0.8313 C.3       1 <0>         0.0642
     30 O4         -5.7014   -1.8294    1.8512 O.3       1 <0>        -0.3723
     31 C21        -6.8428   -2.6893    1.8497 C.3       1 <0>         0.0322
     32 H2          1.4577    1.4670    0.7603 H         1 <0>         0.0644
     33 H3         -0.1507    1.7546    0.0541 H         1 <0>         0.0869
     34 H4          0.0036    1.3462    1.7797 H         1 <0>         0.0867
     35 H5          2.0752   -5.7974   -1.0060 H         1 <0>         0.2329
     36 H6         -1.6900   -4.9175   -0.5903 H         1 <0>         0.0905
     37 H7         -3.2629   -6.5931   -0.2377 H         1 <0>         0.0519
     38 H8         -3.0848   -6.3493   -1.9977 H         1 <0>         0.0494
     39 H9         -4.7129   -8.3037   -0.8700 H         1 <0>         0.0710
     40 H10        -3.9798   -8.4477   -2.5013 H         1 <0>         0.0683
     41 H11        -2.9414   -9.5725    0.1610 H         1 <0>         0.0691
     42 H12        -3.0630  -10.3989   -1.4285 H         1 <0>         0.0718
     43 H13        -1.2461   -9.1248   -2.3628 H         1 <0>         0.0459
     44 H14        -0.6855   -9.3515   -0.6778 H         1 <0>         0.0666
     45 H15        -3.6023   -3.5291    0.4291 H         1 <0>         0.1215
     46 H16        -4.3360   -4.6411    2.5190 H         1 <0>         0.1204
     47 H17        -2.6301   -4.7337    4.4594 H         1 <0>         0.1743
     48 H18        -4.3762    0.4367    1.9345 H         1 <0>         0.0681
     49 H19        -4.5226    0.8458    0.2084 H         1 <0>         0.0743
     50 H20        -6.6048   -0.1973    0.9631 H         1 <0>         0.0637
     51 H21        -5.7665   -1.3079   -0.1469 H         1 <0>         0.0572
     52 H22        -7.7445   -2.0964    2.0026 H         1 <0>         0.0360
     53 H23        -6.9063   -3.2070    0.8926 H         1 <0>         0.0401
     54 H24        -6.7480   -3.4203    2.6527 H         1 <0>         0.0840
@<TRIPOS>BOND
     1    1    2 1
     2    1   32 1
     3    1   33 1
     4    1   34 1
     5    2   11 1
     6    2    3 2
     7    3    4 1
     8    3   25 1
     9    4    5 1
    10    4    6 1
    11    4   20 1
    12    6   10 1
    13    6    7 1
    14    7    8 2
    15    7   12 1
    16    8    9 1
    17    8   35 1
    18    9   10 1
    19   10   11 2
    20   12   13 2
    21   12   36 1
    22   13   14 1
    23   13   15 1
    24   15   19 1
    25   15   16 1
    26   16   17 1
    27   16   37 1
    28   16   38 1
    29   17   18 1
    30   17   39 1
    31   17   40 1
    32   18   19 1
    33   18   41 1
    34   18   42 1
    35   19   43 1
    36   19   44 1
    37   20   24 1
    38   20   21 2
    39   21   22 1
    40   21   45 1
    41   22   23 2
    42   22   46 1
    43   23   24 1
    44   23   47 1
    45   25   26 2
    46   25   27 1
    47   27   28 1
    48   28   29 1
    49   28   48 1
    50   28   49 1
    51   29   30 1
    52   29   50 1
    53   29   51 1
    54   30   31 1
    55   31   52 1
    56   31   53 1
    57   31   54 1
@<TRIPOS>MOLECULE
ZINC39997668
   45    47     0     0     0
SMALL
USER_CHARGES

@<TRIPOS>ATOM
      1 C1         -0.2067    1.4464   -0.4139 C.3       1 <0>         0.0347
      2 O1         -0.2056    0.0202   -0.5036 O.3       1 <0>        -0.3498
      3 C2         -1.1752   -0.6355    0.1638 C.2       1 <0>         0.5090
      4 O2         -1.9990   -0.0135    0.8043 O.2       1 <0>        -0.5044
      5 C3         -1.2364   -2.1100    0.1167 C.ar      1 <0>        -0.1276
      6 C4         -0.2843   -2.8253   -0.6160 C.ar      1 <0>        -0.0623
      7 C5         -0.3391   -4.1892   -0.6604 C.ar      1 <0>        -0.1074
      8 C6         -1.3506   -4.8719    0.0292 C.ar      1 <0>        -0.0315
      9 C7         -2.3041   -4.1530    0.7632 C.ar      1 <0>        -0.1175
     10 C8         -2.2430   -2.7895    0.8096 C.ar      1 <0>        -0.0476
     11 C9         -1.4114   -6.3366   -0.0176 C.2       1 <0>        -0.0078
     12 C10        -2.6236   -6.9786    0.0891 C.2       1 <0>        -0.0113
     13 C11        -3.8375   -6.2190    0.0995 C.1       1 <0>         0.2710
     14 N1         -4.8006   -5.6165    0.1077 N.1       1 <0>        -0.4225
     15 C12        -2.6726   -8.4441    0.1925 C.2       1 <0>         0.4642
     16 O3         -1.5253   -9.1620    0.1827 O.3       1 <0>        -0.6239
     17 N2         -3.8303   -9.0572    0.2944 N.2       1 <0>        -0.6003
     18 C13        -3.8756  -10.4104    0.3899 C.2       1 <0>         0.3640
     19 N3         -2.8856  -11.3001    0.4059 N.2       1 <0>        -0.3397
     20 N4         -3.1068  -12.5381    0.5015 N.2       1 <0>        -0.2420
     21 C14        -4.3384  -13.0263    0.5916 C.2       1 <0>        -0.0685
     22 S1         -5.2835  -11.5065    0.5379 S.3       1 <0>        -0.0569
     23 S2         -4.8866  -14.6950    0.7310 S.3       1 <0>         0.0102
     24 C15        -3.3523  -15.6627    0.7274 C.3       1 <0>        -0.0686
     25 C16        -3.6825  -17.1285    0.8430 C.ar      1 <0>        -0.1050
     26 C17        -3.7853  -17.7179    2.0891 C.ar      1 <0>        -0.0720
     27 C18        -4.0883  -19.0623    2.1954 C.ar      1 <0>        -0.1315
     28 C19        -4.2888  -19.8191    1.0558 C.ar      1 <0>        -0.0882
     29 C20        -4.1871  -19.2320   -0.1909 C.ar      1 <0>        -0.1563
     30 C21        -3.8888  -17.8840   -0.2986 C.ar      1 <0>         0.1172
     31 F1         -3.7936  -17.3078   -1.5168 F         1 <0>        -0.1301
     32 H1          0.6234    1.8477   -0.9952 H         1 <0>         0.1029
     33 H2         -1.1465    1.8344   -0.8068 H         1 <0>         0.0607
     34 H3         -0.0980    1.7450    0.6288 H         1 <0>         0.0608
     35 H4          0.4947   -2.2989   -1.1475 H         1 <0>         0.1418
     36 H5          0.3963   -4.7413   -1.2267 H         1 <0>         0.1429
     37 H6         -3.0842   -4.6774    1.2952 H         1 <0>         0.1378
     38 H7         -2.9749   -2.2355    1.3787 H         1 <0>         0.1395
     39 H8         -0.5046   -6.9112   -0.1358 H         1 <0>         0.1682
     40 H9         -2.8123  -15.4841   -0.2024 H         1 <0>         0.1036
     41 H10        -2.7314  -15.3625    1.5715 H         1 <0>         0.1066
     42 H11        -3.6285  -17.1278    2.9799 H         1 <0>         0.1375
     43 H12        -4.1680  -19.5220    3.1694 H         1 <0>         0.1313
     44 H13        -4.5248  -20.8696    1.1400 H         1 <0>         0.1323
     45 H14        -4.3435  -19.8234   -1.0810 H         1 <0>         0.1365
@<TRIPOS>BOND
     1    1    2 1
     2    1   32 1
     3    1   33 1
     4    1   34 1
     5    2    3 1
     6    3    4 2
     7    3    5 1
     8    5   10 ar
     9    5    6 ar
    10    6    7 ar
    11    6   35 1
    12    7    8 ar
    13    7   36 1
    14    8    9 ar
    15    8   11 1
    16    9   10 ar
    17    9   37 1
    18   10   38 1
    19   11   12 2
    20   11   39 1
    21   12   13 1
    22   12   15 1
    23   13   14 3
    24   15   16 1
    25   15   17 2
    26   17   18 1
    27   18   22 1
    28   18   19 2
    29   19   20 1
    30   20   21 2
    31   21   22 1
    32   21   23 1
    33   23   24 1
    34   24   25 1
    35   24   40 1
    36   24   41 1
    37   25   30 ar
    38   25   26 ar
    39   26   27 ar
    40   26   42 1
    41   27   28 ar
    42   27   43 1
    43   28   29 ar
    44   28   44 1
    45   29   30 ar
    46   29   45 1
    47   30   31 1
@<TRIPOS>MOLECULE
ZINC13046419
   54    56     0     0     0
SMALL
USER_CHARGES
2-[2-[2-[2-(difluoromethoxy)phenyl]ethylamino]-2-oxo-ethyl]sulfanyl-3-(2-hydroxyethyl)-4-oxo-quinazoline-7-carboxylic acid
@<TRIPOS>ATOM
      1 C1          0.0396   -2.7702   -0.0131 C.ar      1 <0>        -0.1408
      2 C2          1.2283   -2.0637   -0.0211 C.ar      1 <0>        -0.0834
      3 C3          1.2122   -0.6825   -0.0189 C.ar      1 <0>        -0.1889
      4 C4          0.0021   -0.0041    0.0020 C.ar      1 <0>         0.1109
      5 C5         -1.1889   -0.7151    0.0096 C.ar      1 <0>        -0.0966
      6 C6         -1.1675   -2.0965    0.0020 C.ar      1 <0>        -0.0802
      7 C7         -2.5051    0.0187    0.0255 C.3       1 <0>        -0.0870
      8 C8         -2.9028    0.3840   -1.4060 C.3       1 <0>         0.1282
      9 N1         -4.1823    1.0973   -1.3905 N.am      1 <0>        -0.7236
     10 C9         -4.7322    1.5201   -2.5461 C.2       1 <0>         0.5346
     11 O1         -4.1677    1.3100   -3.5988 O.2       1 <0>        -0.5274
     12 C10        -6.0484    2.2538   -2.5301 C.3       1 <0>        -0.1465
     13 S1         -6.5188    2.6860   -4.2237 S.3       1 <0>         0.0504
     14 C11        -8.0464    3.5087   -3.9164 C.2       1 <0>         0.3359
     15 N2         -8.4600    3.6159   -2.6779 N.2       1 <0>        -0.5153
     16 C12        -9.6239    4.2354   -2.3705 C.ar      1 <0>         0.1357
     17 C13       -10.0628    4.3489   -1.0483 C.ar      1 <0>        -0.0734
     18 C14       -11.2639    4.9936   -0.7807 C.ar      1 <0>        -0.0692
     19 C15       -12.0317    5.5274   -1.8240 C.ar      1 <0>        -0.0874
     20 C16       -11.6129    5.4224   -3.1193 C.ar      1 <0>        -0.0634
     21 C17       -10.4107    4.7789   -3.4109 C.ar      1 <0>        -0.1923
     22 C18        -9.9217    4.6439   -4.7923 C.2       1 <0>         0.5602
     23 O2        -10.5536    5.0909   -5.7315 O.2       1 <0>        -0.4971
     24 N3         -8.7414    4.0097   -4.9798 N.am      1 <0>        -0.5265
     25 C19        -8.2076    3.8537   -6.3352 C.3       1 <0>         0.0922
     26 C20        -8.7234    2.5459   -6.9390 C.3       1 <0>         0.0590
     27 O3        -10.1416    2.6212   -7.0975 O.3       1 <0>        -0.5561
     28 C21       -11.7354    5.1179    0.6161 C.2       1 <0>         0.4886
     29 O4        -11.0731    4.6572    1.5238 O.co2     1 <0>        -0.6229
     30 O5         -0.0164    1.3548    0.0095 O.3       1 <0>        -0.3162
     31 C22         1.2479    2.0208    0.0010 C.3       1 <0>         0.4114
     32 F1          1.9787    1.6485    1.1344 F         1 <0>        -0.1985
     33 F2          1.9569    1.6608   -1.1501 F         1 <0>        -0.1977
     34 H1          0.0542   -3.8501   -0.0190 H         1 <0>         0.1285
     35 H2          2.1701   -2.5923   -0.0333 H         1 <0>         0.1286
     36 H3          2.1408   -0.1312   -0.0297 H         1 <0>         0.1335
     37 H4         -2.0946   -2.6506    0.0075 H         1 <0>         0.1348
     38 H5         -3.2719   -0.6201    0.4638 H         1 <0>         0.0845
     39 H6         -2.4071    0.9279    0.6186 H         1 <0>         0.0864
     40 H7         -2.1360    1.0228   -1.8443 H         1 <0>         0.0722
     41 H8         -3.0008   -0.5252   -1.9991 H         1 <0>         0.0710
     42 H9         -4.6337    1.2653   -0.5486 H         1 <0>         0.4071
     43 H10        -6.8152    1.6150   -2.0918 H         1 <0>         0.1319
     44 H11        -5.9504    3.1630   -1.9370 H         1 <0>         0.1321
     45 H12        -9.4731    3.9392   -0.2416 H         1 <0>         0.1433
     46 H13       -12.9635    6.0260   -1.6016 H         1 <0>         0.1423
     47 H14       -12.2116    5.8374   -3.9166 H         1 <0>         0.1332
     48 H15        -8.5321    4.6916   -6.9521 H         1 <0>         0.1095
     49 H16        -7.1185    3.8313   -6.2964 H         1 <0>         0.1081
     50 H17        -8.2571    2.3858   -7.9111 H         1 <0>         0.0651
     51 H18        -8.4754    1.7169   -6.2761 H         1 <0>         0.0554
     52 H19       -10.5378    1.8245   -7.4763 H         1 <0>         0.3775
     53 H20         1.0905    3.0993    0.0083 H         1 <0>         0.1830
     54 O6        -12.8991    5.7420    0.8811 O.co2     1 <0>        -0.7444
@<TRIPOS>BOND
     1    1    6 ar
     2    1    2 ar
     3    1   34 1
     4    2    3 ar
     5    2   35 1
     6    3    4 ar
     7    3   36 1
     8    4    5 ar
     9    4   30 1
    10    5    6 ar
    11    5    7 1
    12    6   37 1
    13    7    8 1
    14    7   38 1
    15    7   39 1
    16    8    9 1
    17    8   40 1
    18    8   41 1
    19    9   10 am
    20    9   42 1
    21   10   11 2
    22   10   12 1
    23   12   13 1
    24   12   43 1
    25   12   44 1
    26   13   14 1
    27   14   24 1
    28   14   15 2
    29   15   16 1
    30   16   21 ar
    31   16   17 ar
    32   17   18 ar
    33   17   45 1
    34   18   19 ar
    35   18   28 1
    36   19   20 ar
    37   19   46 1
    38   20   21 ar
    39   20   47 1
    40   21   22 1
    41   22   23 2
    42   22   24 am
    43   24   25 1
    44   25   26 1
    45   25   48 1
    46   25   49 1
    47   26   27 1
    48   26   50 1
    49   26   51 1
    50   27   52 1
    51   28   29 2
    52   28   54 1
    53   30   31 1
    54   31   32 1
    55   31   33 1
    56   31   53 1
@<TRIPOS>MOLECULE
ZINC35700952
   67    69     0     0     0
SMALL
USER_CHARGES

@<TRIPOS>ATOM
      1 C1          3.3319   -2.5980   -2.2093 C.3       1 <0>        -0.1488
      2 C2          3.1527   -1.1265   -2.5883 C.3       1 <0>        -0.1294
      3 C3          3.9563   -0.2503   -1.6254 C.3       1 <0>         0.1575
      4 H1          4.9991   -0.5676   -1.6297 H         1 <0>         0.0775
      5 C4          3.8660    1.2110   -2.0694 C.3       1 <0>        -0.1576
      6 N1          3.4108   -0.3842   -0.2723 N.pl3     1 <0>        -0.7479
      7 C5          4.2023   -0.0913    0.8254 C.2       1 <0>         0.5045
      8 O1          5.5102    0.2198    0.6541 O.3       1 <0>        -0.7038
      9 C6          3.6724   -0.1156    2.0634 C.2       1 <0>        -0.4714
     10 C7          4.4705    0.3329    3.2135 C.2       1 <0>         0.2347
     11 C8          5.6929    0.8836    3.0445 C.2       1 <0>        -0.3063
     12 S1          6.1785    1.2255    4.7244 S.3       1 <0>         0.1431
     13 C9          4.8107    0.6513    5.5094 C.2       1 <0>         0.3210
     14 N2          4.4964    0.5971    6.7874 N.2       1 <0>        -0.5956
     15 C10         3.3633    0.1097    7.2661 C.2       1 <0>         0.3029
     16 C11         2.4011   -0.3934    6.4116 C.2       1 <0>        -0.3911
     17 C12         2.6915   -0.3648    4.9276 C.3       1 <0>         0.2621
     18 H2          2.6359   -1.3876    4.5550 H         1 <0>         0.0805
     19 N3          3.9954    0.2116    4.5041 N.pl3     1 <0>        -0.5125
     20 C13         1.6001    0.4287    4.2565 C.ar      1 <0>         0.0032
     21 C14         1.5894    1.8069    4.3545 C.ar      1 <0>        -0.1550
     22 C15         0.5855    2.5399    3.7375 C.ar      1 <0>         0.1584
     23 C16        -0.4073    1.8881    3.0223 C.ar      1 <0>        -0.2945
     24 C17        -0.3945    0.5052    2.9255 C.ar      1 <0>         0.1553
     25 C18         0.6148   -0.2228    3.5396 C.ar      1 <0>        -0.1358
     26 O2         -1.3666   -0.1365    2.2255 O.3       1 <0>        -0.3140
     27 C19        -2.3063    0.6793    1.5230 C.3       1 <0>         0.0291
     28 O3          0.5753    3.8953    3.8346 O.3       1 <0>        -0.3151
     29 C20        -0.4880    4.5851    3.1745 C.3       1 <0>         0.0303
     30 C21         1.1974   -0.9128    6.9032 C.2       1 <0>         0.5363
     31 O4          0.9845   -0.9263    8.1032 O.2       1 <0>        -0.5521
     32 O5          0.2717   -1.3992    6.0472 O.3       1 <0>        -0.3427
     33 C22        -0.9331   -1.9136    6.6181 C.3       1 <0>         0.0735
     34 C23        -1.8524   -2.4153    5.5028 C.3       1 <0>         0.0646
     35 O6         -1.2409   -3.5270    4.8454 O.3       1 <0>        -0.3801
     36 C24        -2.0216   -4.0741    3.7809 C.3       1 <0>         0.0323
     37 C25         3.1208    0.1028    8.7534 C.3       1 <0>        -0.0914
     38 H3          3.0555   -2.7404   -1.1646 H         1 <0>         0.0592
     39 H4          2.6943   -3.2162   -2.8413 H         1 <0>         0.0459
     40 H5          4.3735   -2.8857   -2.3521 H         1 <0>         0.0522
     41 H6          3.5078   -0.9677   -3.6065 H         1 <0>         0.0651
     42 H7          2.0973   -0.8613   -2.5261 H         1 <0>         0.0577
     43 H8          4.4386    1.8353   -1.3833 H         1 <0>         0.0620
     44 H9          4.2719    1.3107   -3.0761 H         1 <0>         0.0476
     45 H10         2.8232    1.5283   -2.0650 H         1 <0>         0.0432
     46 H11         2.4951   -0.6781   -0.1455 H         1 <0>         0.3824
     47 H12         2.6610   -0.4645    2.2112 H         1 <0>         0.0912
     48 H13         6.2349    1.0686    2.1289 H         1 <0>         0.2332
     49 H14         2.3629    2.3142    4.9121 H         1 <0>         0.1157
     50 H15        -1.1897    2.4567    2.5417 H         1 <0>         0.1272
     51 H16         0.6277   -1.2999    3.4607 H         1 <0>         0.1323
     52 H17        -1.7877    1.2488    0.7518 H         1 <0>         0.0528
     53 H18        -3.0627    0.0457    1.0600 H         1 <0>         0.0955
     54 H19        -2.7851    1.3656    2.2215 H         1 <0>         0.0496
     55 H20        -1.4435    4.2551    3.5822 H         1 <0>         0.0502
     56 H21        -0.3773    5.6581    3.3310 H         1 <0>         0.0969
     57 H22        -0.4541    4.3682    2.1068 H         1 <0>         0.0523
     58 H23        -0.6937   -2.7378    7.2900 H         1 <0>         0.0681
     59 H24        -1.4365   -1.1243    7.1764 H         1 <0>         0.0733
     60 H25        -2.8061   -2.7254    5.9299 H         1 <0>         0.0622
     61 H26        -2.0201   -1.6146    4.7824 H         1 <0>         0.0620
     62 H27        -1.4888   -4.9132    3.3336 H         1 <0>         0.0839
     63 H28        -2.9788   -4.4187    4.1723 H         1 <0>         0.0352
     64 H29        -2.1929   -3.3079    3.0249 H         1 <0>         0.0450
     65 H30         3.9816    0.5345    9.2639 H         1 <0>         0.0637
     66 H31         2.2316    0.6913    8.9793 H         1 <0>         0.0859
     67 H32         2.9737   -0.9226    9.0928 H         1 <0>         0.0867
@<TRIPOS>BOND
     1    1    2 1
     2    1   38 1
     3    1   39 1
     4    1   40 1
     5    2    3 1
     6    2   41 1
     7    2   42 1
     8    3    4 1
     9    3    5 1
    10    3    6 1
    11    5   43 1
    12    5   44 1
    13    5   45 1
    14    6    7 1
    15    6   46 1
    16    7    8 1
    17    7    9 2
    18    9   10 1
    19    9   47 1
    20   10   19 1
    21   10   11 2
    22   11   12 1
    23   11   48 1
    24   12   13 1
    25   13   19 1
    26   13   14 2
    27   14   15 1
    28   15   16 2
    29   15   37 1
    30   16   17 1
    31   16   30 1
    32   17   18 1
    33   17   19 1
    34   17   20 1
    35   20   25 ar
    36   20   21 ar
    37   21   22 ar
    38   21   49 1
    39   22   23 ar
    40   22   28 1
    41   23   24 ar
    42   23   50 1
    43   24   25 ar
    44   24   26 1
    45   25   51 1
    46   26   27 1
    47   27   52 1
    48   27   53 1
    49   27   54 1
    50   28   29 1
    51   29   55 1
    52   29   56 1
    53   29   57 1
    54   30   31 2
    55   30   32 1
    56   32   33 1
    57   33   34 1
    58   33   58 1
    59   33   59 1
    60   34   35 1
    61   34   60 1
    62   34   61 1
    63   35   36 1
    64   36   62 1
    65   36   63 1
    66   36   64 1
    67   37   65 1
    68   37   66 1
    69   37   67 1
@<TRIPOS>MOLECULE
ZINC36499802
   66    67     0     0     0
SMALL
USER_CHARGES

@<TRIPOS>ATOM
      1 C1         -1.5676   -0.2395    0.7422 C.3       1 <0>        -0.1483
      2 C2         -1.0971   -0.2384   -0.6895 C.2       1 <0>        -0.1219
      3 C3         -1.9515   -0.0264   -1.6596 C.2       1 <0>        -0.1870
      4 C4         -3.3811    0.3278   -1.3405 C.3       1 <0>         0.1308
      5 H1         -3.4973    0.4331   -0.2619 H         1 <0>         0.1283
      6 C5         -4.2924   -0.7638   -1.8397 C.2       1 <0>         0.4934
      7 O1         -5.1886   -0.4993   -2.6129 O.2       1 <0>        -0.5034
      8 N1         -4.1116   -2.0339   -1.4268 N.am      1 <0>        -0.7004
      9 C6         -4.9975   -3.0951   -1.9121 C.3       1 <0>         0.1881
     10 C7         -6.3970   -2.8989   -1.3257 C.3       1 <0>        -0.1739
     11 C8         -5.0719   -3.0387   -3.4392 C.3       1 <0>        -0.1847
     12 C9         -4.4488   -4.4557   -1.4780 C.3       1 <0>        -0.1130
     13 C10        -2.9196   -4.4259   -1.5197 C.3       1 <0>        -0.0676
     14 C11        -2.3822   -3.9362   -0.1735 C.3       1 <0>        -0.1532
     15 C12        -2.3894   -5.8336   -1.7990 C.3       1 <0>        -0.1374
     16 C13        -2.4581   -3.4778   -2.6284 C.3       1 <0>        -0.2001
     17 N2         -3.7289    1.5915   -1.9949 N.am      1 <0>        -0.5924
     18 C14        -2.9591    2.0529   -3.1528 C.3       1 <0>         0.1961
     19 C15        -3.6470    1.6151   -4.4202 C.2       1 <0>        -0.0227
     20 C16        -4.6404    2.2737   -5.0439 C.2       1 <0>        -0.1808
     21 C17        -4.9839    1.5120   -6.1843 C.2       1 <0>        -0.2131
     22 C18        -4.1800    0.4335   -6.1893 C.2       1 <0>        -0.0447
     23 O2         -3.3684    0.5042   -5.1216 O.3       1 <0>        -0.1730
     24 C19        -4.7570    2.3297   -1.5316 C.2       1 <0>         0.5848
     25 O3         -5.0079    3.4070   -2.0363 O.2       1 <0>        -0.4997
     26 C20        -5.5780    1.8304   -0.4121 C.ar      1 <0>        -0.2693
     27 C21        -5.4232    0.5183    0.0422 C.ar      1 <0>        -0.0222
     28 C22        -6.1931    0.0581    1.0881 C.ar      1 <0>        -0.1884
     29 C23        -7.1210    0.8909    1.6924 C.ar      1 <0>        -0.0101
     30 C24        -7.2845    2.1894    1.2531 C.ar      1 <0>        -0.2382
     31 C25        -6.5136    2.6713    0.2055 C.ar      1 <0>         0.3315
     32 O4         -6.6688    3.9489   -0.2232 O.3       1 <0>        -0.6214
     33 N3         -6.0284   -1.3324    1.5681 N.pl3     1 <0>         0.0749
     34 O5         -5.2198   -2.0615    1.0425 O.2       1 <0>        -0.2079
     35 O6         -6.7025   -1.7390    2.4856 O.3       1 <0>        -0.2276
     36 H2         -0.7413   -0.5188    1.3959 H         1 <0>         0.0711
     37 H3         -1.9214    0.7563    1.0090 H         1 <0>         0.0743
     38 H4         -2.3802   -0.9567    0.8570 H         1 <0>         0.0704
     39 H5         -0.0555   -0.4125   -0.9158 H         1 <0>         0.1237
     40 H6         -1.6314   -0.1053   -2.6880 H         1 <0>         0.1265
     41 H7         -3.3948   -2.2455   -0.8084 H         1 <0>         0.4055
     42 H8         -6.8180   -1.9639   -1.6953 H         1 <0>         0.0619
     43 H9         -7.0363   -3.7291   -1.6259 H         1 <0>         0.0528
     44 H10        -6.3336   -2.8640   -0.2381 H         1 <0>         0.0783
     45 H11        -4.0652   -3.0897   -3.8541 H         1 <0>         0.0724
     46 H12        -5.6590   -3.8808   -3.8057 H         1 <0>         0.0509
     47 H13        -5.5444   -2.1055   -3.7458 H         1 <0>         0.0845
     48 H14        -4.7804   -4.6742   -0.4629 H         1 <0>         0.0762
     49 H15        -4.8156   -5.2279   -2.1542 H         1 <0>         0.0722
     50 H16        -3.0912   -4.1898    0.6147 H         1 <0>         0.0689
     51 H17        -1.4247   -4.4150    0.0313 H         1 <0>         0.0577
     52 H18        -2.2480   -2.8551   -0.2074 H         1 <0>         0.0560
     53 H19        -2.7723   -6.1825   -2.7580 H         1 <0>         0.0516
     54 H20        -1.3001   -5.8124   -1.8286 H         1 <0>         0.0518
     55 H21        -2.7183   -6.5090   -1.0091 H         1 <0>         0.0532
     56 H22        -2.9399   -2.5084   -2.5014 H         1 <0>         0.1122
     57 H23        -1.3763   -3.3556   -2.5749 H         1 <0>         0.0425
     58 H24        -2.7292   -3.8941   -3.5986 H         1 <0>         0.0541
     59 H25        -2.8908    3.1406   -3.1336 H         1 <0>         0.1128
     60 H26        -1.9572    1.6252   -3.1169 H         1 <0>         0.0947
     61 H27        -5.0897    3.2052   -4.7328 H         1 <0>         0.1474
     62 H28        -5.7459    1.7501   -6.9117 H         1 <0>         0.1404
     63 H29        -4.1838   -0.3537   -6.9287 H         1 <0>         0.1936
     64 H30        -4.7014   -0.1344   -0.4261 H         1 <0>         0.1646
     65 H31        -7.7202    0.5218    2.5116 H         1 <0>         0.1264
     66 H32        -8.0101    2.8324    1.7290 H         1 <0>         0.1256
@<TRIPOS>BOND
     1    1    2 1
     2    1   36 1
     3    1   37 1
     4    1   38 1
     5    2    3 2
     6    2   39 1
     7    3    4 1
     8    3   40 1
     9    4    5 1
    10    4    6 1
    11    4   17 1
    12    6    7 2
    13    6    8 am
    14    8    9 1
    15    8   41 1
    16    9   10 1
    17    9   11 1
    18    9   12 1
    19   10   42 1
    20   10   43 1
    21   10   44 1
    22   11   45 1
    23   11   46 1
    24   11   47 1
    25   12   13 1
    26   12   48 1
    27   12   49 1
    28   13   14 1
    29   13   15 1
    30   13   16 1
    31   14   50 1
    32   14   51 1
    33   14   52 1
    34   15   53 1
    35   15   54 1
    36   15   55 1
    37   16   56 1
    38   16   57 1
    39   16   58 1
    40   17   18 1
    41   17   24 am
    42   18   19 1
    43   18   59 1
    44   18   60 1
    45   19   23 1
    46   19   20 2
    47   20   21 1
    48   20   61 1
    49   21   22 2
    50   21   62 1
    51   22   23 1
    52   22   63 1
    53   24   25 2
    54   24   26 1
    55   26   31 ar
    56   26   27 ar
    57   27   28 ar
    58   27   64 1
    59   28   29 ar
    60   28   33 1
    61   29   30 ar
    62   29   65 1
    63   30   31 ar
    64   30   66 1
    65   31   32 1
    66   33   34 2
    67   33   35 1
@<TRIPOS>MOLECULE
ZINC40093152
   71    73     0     0     0
SMALL
USER_CHARGES

@<TRIPOS>ATOM
      1 C1         -0.9819    1.3187    0.3360 C.3       1 <0>        -0.1493
      2 C2         -0.8289   -0.1963    0.1872 C.3       1 <0>         0.0537
      3 O1          0.0455   -0.4816   -0.9065 O.3       1 <0>        -0.3087
      4 C3          0.2897   -1.7920   -1.1761 C.ar      1 <0>         0.0926
      5 C4         -0.3039   -2.7812   -0.4085 C.ar      1 <0>        -0.1774
      6 C5         -0.0550   -4.1127   -0.6843 C.ar      1 <0>        -0.0755
      7 C6          0.7860   -4.4609   -1.7249 C.ar      1 <0>        -0.0687
      8 C7          1.3818   -3.4790   -2.4942 C.ar      1 <0>        -0.1640
      9 C8          1.1317   -2.1425   -2.2271 C.ar      1 <0>         0.0918
     10 O2          1.7122   -1.1754   -2.9868 O.3       1 <0>        -0.3102
     11 C9          2.4819   -1.6079   -4.1105 C.3       1 <0>         0.0278
     12 C10         1.0543   -5.9140   -2.0208 C.3       1 <0>         0.2656
     13 H1          1.8479   -6.0048   -2.7624 H         1 <0>         0.0659
     14 C11        -0.2042   -6.5830   -2.5220 C.2       1 <0>        -0.5025
     15 C12        -0.4978   -7.5704   -1.6444 C.2       1 <0>         0.2673
     16 C13         0.5200   -7.5862   -0.5729 C.2       1 <0>         0.5150
     17 O3          0.5337   -8.3590    0.3645 O.2       1 <0>        -0.5181
     18 N1          1.4312   -6.6184   -0.7897 N.am      1 <0>        -0.6112
     19 C14         2.5920   -6.3208    0.0531 C.3       1 <0>         0.1420
     20 C15         2.1994   -5.2949    1.1181 C.3       1 <0>         0.0351
     21 O4          1.2306   -5.8687    1.9980 O.3       1 <0>        -0.3550
     22 C16         0.7941   -4.9883    3.0355 C.3       1 <0>         0.0631
     23 C17        -0.2360   -5.7038    3.9118 C.3       1 <0>         0.0790
     24 O5          0.3890   -6.7993    4.5836 O.3       1 <0>        -0.5631
     25 O6         -1.5554   -8.4096   -1.7335 O.3       1 <0>        -0.6516
     26 C18        -0.9616   -6.2304   -3.7272 C.2       1 <0>         0.5016
     27 O7         -2.1252   -5.8858   -3.6355 O.2       1 <0>        -0.4800
     28 C19        -0.3126   -6.2934   -5.0515 C.ar      1 <0>        -0.1673
     29 C20         0.9837   -6.8037   -5.1735 C.ar      1 <0>        -0.0324
     30 C21         1.5852   -6.8606   -6.4102 C.ar      1 <0>        -0.2239
     31 C22         0.9056   -6.4116   -7.5374 C.ar      1 <0>         0.1420
     32 C23        -0.3830   -5.9032   -7.4205 C.ar      1 <0>        -0.1359
     33 C24        -0.9944   -5.8485   -6.1880 C.ar      1 <0>        -0.0376
     34 C25        -1.1142   -5.4172   -8.6453 C.3       1 <0>        -0.0993
     35 O8          1.5022   -6.4695   -8.7548 O.3       1 <0>        -0.3079
     36 C26         2.7800   -7.1058   -8.8215 C.3       1 <0>         0.0745
     37 C27         3.0141   -7.6327  -10.2387 C.3       1 <0>        -0.1475
     38 C28         3.8723   -6.0950   -8.4664 C.3       1 <0>        -0.1799
     39 H2         -0.0059    1.7657    0.5250 H         1 <0>         0.0639
     40 H3         -1.4000    1.7335   -0.5812 H         1 <0>         0.0651
     41 H4         -1.6488    1.5364    1.1702 H         1 <0>         0.0747
     42 H5         -0.4108   -0.6111    1.1044 H         1 <0>         0.0572
     43 H6         -1.8049   -0.6433   -0.0018 H         1 <0>         0.0600
     44 H7         -0.9608   -2.5119    0.4054 H         1 <0>         0.1279
     45 H8         -0.5183   -4.8828   -0.0853 H         1 <0>         0.1255
     46 H9          2.0387   -3.7536   -3.3063 H         1 <0>         0.1317
     47 H10         2.9504   -0.7449   -4.5838 H         1 <0>         0.0944
     48 H11         3.2529   -2.3025   -3.7771 H         1 <0>         0.0524
     49 H12         1.8296   -2.1061   -4.8277 H         1 <0>         0.0542
     50 H13         2.9331   -7.2355    0.5380 H         1 <0>         0.0860
     51 H14         3.3943   -5.9155   -0.5635 H         1 <0>         0.0868
     52 H15         3.0826   -5.0069    1.6883 H         1 <0>         0.0480
     53 H16         1.7754   -4.4143    0.6355 H         1 <0>         0.0596
     54 H17         1.6482   -4.6940    3.6455 H         1 <0>         0.0486
     55 H18         0.3410   -4.1013    2.5927 H         1 <0>         0.0567
     56 H19        -0.6343   -5.0057    4.6480 H         1 <0>         0.0542
     57 H20        -1.0482   -6.0761    3.2874 H         1 <0>         0.0567
     58 H21        -0.2064   -7.2996    5.1583 H         1 <0>         0.3759
     59 H22         1.5122   -7.1522   -4.2985 H         1 <0>         0.1359
     60 H23         2.5864   -7.2542   -6.5052 H         1 <0>         0.1286
     61 H24        -1.9973   -5.4579   -6.0987 H         1 <0>         0.1344
     62 H25        -1.6752   -6.2420   -9.0848 H         1 <0>         0.0639
     63 H26        -1.8014   -4.6188   -8.3653 H         1 <0>         0.0628
     64 H27        -0.3948   -5.0393   -9.3718 H         1 <0>         0.0659
     65 H28         2.8098   -7.9359   -8.1157 H         1 <0>         0.0750
     66 H29         2.9843   -6.8026  -10.9445 H         1 <0>         0.0650
     67 H30         3.9887   -8.1180  -10.2896 H         1 <0>         0.0745
     68 H31         2.2359   -8.3528  -10.4918 H         1 <0>         0.0642
     69 H32         3.7571   -5.7855   -7.4276 H         1 <0>         0.0647
     70 H33         4.8511   -6.5550   -8.6020 H         1 <0>         0.0696
     71 H34         3.7868   -5.2243   -9.1165 H         1 <0>         0.0657
@<TRIPOS>BOND
     1    1    2 1
     2    1   39 1
     3    1   40 1
     4    1   41 1
     5    2    3 1
     6    2   42 1
     7    2   43 1
     8    3    4 1
     9    4    9 ar
    10    4    5 ar
    11    5    6 ar
    12    5   44 1
    13    6    7 ar
    14    6   45 1
    15    7    8 ar
    16    7   12 1
    17    8    9 ar
    18    8   46 1
    19    9   10 1
    20   10   11 1
    21   11   47 1
    22   11   48 1
    23   11   49 1
    24   12   13 1
    25   12   18 1
    26   12   14 1
    27   14   15 2
    28   14   26 1
    29   15   16 1
    30   15   25 1
    31   16   17 2
    32   16   18 am
    33   18   19 1
    34   19   20 1
    35   19   50 1
    36   19   51 1
    37   20   21 1
    38   20   52 1
    39   20   53 1
    40   21   22 1
    41   22   23 1
    42   22   54 1
    43   22   55 1
    44   23   24 1
    45   23   56 1
    46   23   57 1
    47   24   58 1
    48   26   27 2
    49   26   28 1
    50   28   33 ar
    51   28   29 ar
    52   29   30 ar
    53   29   59 1
    54   30   31 ar
    55   30   60 1
    56   31   32 ar
    57   31   35 1
    58   32   33 ar
    59   32   34 1
    60   33   61 1
    61   34   62 1
    62   34   63 1
    63   34   64 1
    64   35   36 1
    65   36   37 1
    66   36   38 1
    67   36   65 1
    68   37   66 1
    69   37   67 1
    70   37   68 1
    71   38   69 1
    72   38   70 1
    73   38   71 1
@<TRIPOS>MOLECULE
ZINC14040048
   62    64     0     0     0
SMALL
USER_CHARGES

@<TRIPOS>ATOM
      1 C1          0.4938    0.5993   -2.0558 C.3       1 <0>        -0.1776
      2 C2         -0.6164    1.6125   -1.7700 C.3       1 <0>         0.0714
      3 H1         -0.5725    1.9141   -0.7235 H         1 <0>         0.1012
      4 C3         -1.9559    0.9839   -2.0559 C.2       1 <0>         0.5143
      5 O1         -2.6489    1.4149   -2.9532 O.2       1 <0>        -0.4847
      6 N1         -2.3838   -0.0571   -1.3146 N.am      1 <0>        -0.6692
      7 C4         -3.5702   -0.7168   -1.6537 C.ar      1 <0>         0.1775
      8 C5         -4.3871   -1.2357   -0.6577 C.ar      1 <0>        -0.1672
      9 C6         -5.5575   -1.8863   -0.9958 C.ar      1 <0>        -0.0031
     10 C7         -5.9163   -2.0213   -2.3244 C.ar      1 <0>        -0.6360
     11 C8         -5.1049   -1.5061   -3.3186 C.ar      1 <0>        -0.0022
     12 C9         -3.9363   -0.8490   -2.9868 C.ar      1 <0>        -0.1439
     13 S1         -7.4103   -2.8520   -2.7515 S.o2      1 <0>         2.6329
     14 O2         -7.2468   -3.3236   -4.0820 O.2       1 <0>        -1.0111
     15 O3         -7.7169   -3.7191   -1.6683 O.2       1 <0>        -1.0122
     16 N2         -8.6092   -1.7106   -2.7980 N.2       1 <0>        -1.0520
     17 C10        -9.9073   -2.0813   -3.1115 C.ar      1 <0>         0.5174
     18 C11       -10.9220   -1.1283   -3.1589 C.ar      1 <0>        -0.3109
     19 C12       -12.2073   -1.5471   -3.4776 C.ar      1 <0>         0.3834
     20 N3        -12.4260   -2.8353   -3.7253 N.ar      1 <0>        -0.6822
     21 C13       -11.4384   -3.7136   -3.6714 C.ar      1 <0>         0.5578
     22 N4        -10.2006   -3.3520   -3.3769 N.ar      1 <0>        -0.6367
     23 O4        -11.7007   -5.0171   -3.9297 O.3       1 <0>        -0.2978
     24 C14       -13.0518   -5.3563   -4.2481 C.3       1 <0>         0.0518
     25 O5        -13.2257   -0.6545   -3.5349 O.3       1 <0>        -0.3079
     26 C15       -14.5178   -1.1650   -3.8695 C.3       1 <0>         0.0447
     27 O6         -0.4408    2.7595   -2.6040 O.3       1 <0>        -0.2837
     28 C16         0.4132    3.7194   -2.1611 C.ar      1 <0>         0.1267
     29 C17         0.5407    4.9117   -2.8589 C.ar      1 <0>        -0.1437
     30 C18         1.4091    5.8861   -2.4064 C.ar      1 <0>        -0.0768
     31 C19         2.1512    5.6737   -1.2592 C.ar      1 <0>        -0.1150
     32 C20         2.0263    4.4861   -0.5622 C.ar      1 <0>        -0.0742
     33 C21         1.1547    3.5111   -1.0072 C.ar      1 <0>        -0.2094
     34 C22         3.0981    6.7382   -0.7681 C.3       1 <0>        -0.0529
     35 C23         2.6872    7.1765    0.6390 C.3       1 <0>        -0.1452
     36 C24         4.5213    6.1777   -0.7324 C.3       1 <0>        -0.1447
     37 H2          1.4627    1.0539   -1.8491 H         1 <0>         0.0791
     38 H3          0.3599   -0.2756   -1.4197 H         1 <0>         0.0805
     39 H4          0.4499    0.2977   -3.1024 H         1 <0>         0.0782
     40 H5         -1.8692   -0.3491   -0.5459 H         1 <0>         0.4112
     41 H6         -4.1072   -1.1309    0.3801 H         1 <0>         0.1304
     42 H7         -6.1930   -2.2904   -0.2217 H         1 <0>         0.1426
     43 H8         -5.3877   -1.6134   -4.3554 H         1 <0>         0.1418
     44 H9         -3.3055   -0.4423   -3.7635 H         1 <0>         0.1366
     45 H10       -10.7143   -0.0888   -2.9525 H         1 <0>         0.1388
     46 H11       -13.1236   -6.4283   -4.4323 H         1 <0>         0.0912
     47 H12       -13.7002   -5.0867   -3.4144 H         1 <0>         0.0545
     48 H13       -13.3622   -4.8128   -5.1404 H         1 <0>         0.0545
     49 H14       -14.8188   -1.9057   -3.1286 H         1 <0>         0.0531
     50 H15       -15.2395   -0.3482   -3.8807 H         1 <0>         0.0871
     51 H16       -14.4806   -1.6306   -4.8543 H         1 <0>         0.0532
     52 H17        -0.0382    5.0778   -3.7554 H         1 <0>         0.1330
     53 H18         1.5087    6.8144   -2.9493 H         1 <0>         0.1288
     54 H19         2.6073    4.3225    0.3333 H         1 <0>         0.1236
     55 H20         1.0542    2.5854   -0.4600 H         1 <0>         0.1290
     56 H21         3.0619    7.5952   -1.4407 H         1 <0>         0.0767
     57 H22         2.7235    6.3195    1.3116 H         1 <0>         0.0556
     58 H23         3.3721    7.9464    0.9943 H         1 <0>         0.0569
     59 H24         1.6733    7.5758    0.6136 H         1 <0>         0.0563
     60 H25         4.5576    5.3207   -0.0598 H         1 <0>         0.0556
     61 H26         4.8141    5.8654   -1.7349 H         1 <0>         0.0558
     62 H27         5.2062    6.9476   -0.3772 H         1 <0>         0.0568
@<TRIPOS>BOND
     1    1    2 1
     2    1   37 1
     3    1   38 1
     4    1   39 1
     5    2    3 1
     6    2    4 1
     7    2   27 1
     8    4    5 2
     9    4    6 am
    10    6    7 1
    11    6   40 1
    12    7   12 ar
    13    7    8 ar
    14    8    9 ar
    15    8   41 1
    16    9   10 ar
    17    9   42 1
    18   10   11 ar
    19   10   13 1
    20   11   12 ar
    21   11   43 1
    22   12   44 1
    23   13   14 2
    24   13   15 2
    25   13   16 1
    26   16   17 1
    27   17   22 ar
    28   17   18 ar
    29   18   19 ar
    30   18   45 1
    31   19   20 ar
    32   19   25 1
    33   20   21 ar
    34   21   22 ar
    35   21   23 1
    36   23   24 1
    37   24   46 1
    38   24   47 1
    39   24   48 1
    40   25   26 1
    41   26   49 1
    42   26   50 1
    43   26   51 1
    44   27   28 1
    45   28   33 ar
    46   28   29 ar
    47   29   30 ar
    48   29   52 1
    49   30   31 ar
    50   30   53 1
    51   31   32 ar
    52   31   34 1
    53   32   33 ar
    54   32   54 1
    55   33   55 1
    56   34   35 1
    57   34   36 1
    58   34   56 1
    59   35   57 1
    60   35   58 1
    61   35   59 1
    62   36   60 1
    63   36   61 1
    64   36   62 1
@<TRIPOS>MOLECULE
ZINC08790106
   76    76     0     0     0
SMALL
USER_CHARGES
4-methylsulfanyl-2-[4-[(3-methyl-2-tert-butoxycarbonylamino-pentanoyl)aminomethyl]cyclohexyl]carbonylamino-butanoic acid
@<TRIPOS>ATOM
      1 C1          1.1822    1.2694   -1.0587 C.3       1 <0>        -0.1513
      2 C2          1.1868    1.0070    0.4486 C.3       1 <0>        -0.1203
      3 C3         -0.0356    1.6710    1.0855 C.3       1 <0>        -0.0965
      4 H1         -0.0488    2.7303    0.8288 H         1 <0>         0.0900
      5 C4         -1.3091    1.0035    0.5624 C.3       1 <0>        -0.1575
      6 C5          0.0339    1.5156    2.6060 C.3       1 <0>         0.1500
      7 H2         -0.8701    1.9269    3.0550 H         1 <0>         0.1125
      8 C6          0.1491    0.0546    2.9569 C.2       1 <0>         0.5172
      9 O1          1.2405   -0.4395    3.1458 O.2       1 <0>        -0.5333
     10 N1         -0.9607   -0.7030    3.0608 N.am      1 <0>        -0.7194
     11 C7         -0.8445   -2.1434    3.3018 C.3       1 <0>         0.1244
     12 C8         -2.2417   -2.7623    3.3772 C.3       1 <0>        -0.1026
     13 H3         -2.7972   -2.5165    2.4722 H         1 <0>         0.0818
     14 C9         -2.9807   -2.2063    4.5961 C.3       1 <0>        -0.1111
     15 C10        -4.3779   -2.8252    4.6714 C.3       1 <0>        -0.1095
     16 C11        -4.2563   -4.3451    4.7982 C.3       1 <0>        -0.1021
     17 H4         -3.7008   -4.5909    5.7032 H         1 <0>         0.0888
     18 C12        -3.5173   -4.9011    3.5794 C.3       1 <0>        -0.0974
     19 C13        -2.1201   -4.2822    3.5040 C.3       1 <0>        -0.1077
     20 C14        -5.6325   -4.9547    4.8724 C.2       1 <0>         0.5180
     21 O2         -5.9873   -5.7550    4.0331 O.2       1 <0>        -0.5447
     22 N2         -6.4690   -4.6105    5.8715 N.am      1 <0>        -0.7019
     23 C15        -7.8069   -5.2031    5.9437 C.3       1 <0>         0.1074
     24 H5         -7.7665   -6.2349    5.5946 H         1 <0>         0.0895
     25 C16        -8.3003   -5.1736    7.3916 C.3       1 <0>        -0.0923
     26 C17        -7.4117   -6.0744    8.2518 C.3       1 <0>        -0.0749
     27 S1         -7.9968   -6.0394    9.9685 S.3       1 <0>        -0.2721
     28 C18        -6.8533   -7.1420   10.8444 C.3       1 <0>        -0.1212
     29 C19        -8.7528   -4.4153    5.0744 C.2       1 <0>         0.4603
     30 O3         -8.3507   -3.4571    4.4579 O.co2     1 <0>        -0.6259
     31 N3          1.2036    2.2343    3.1174 N.am      1 <0>        -0.6951
     32 C20         1.1205    3.5525    3.3854 C.2       1 <0>         0.6553
     33 O4          0.0754    4.1449    3.2030 O.2       1 <0>        -0.5652
     34 O5          2.1955    4.2130    3.8554 O.3       1 <0>        -0.3623
     35 C21         2.0333    5.6311    4.1219 C.3       1 <0>         0.1366
     36 C22         0.9372    5.8309    5.1705 C.3       1 <0>        -0.1846
     37 C23         3.3511    6.2056    4.6456 C.3       1 <0>        -0.1415
     38 C24         1.6406    6.3511    2.8302 C.3       1 <0>        -0.1837
     39 H6          2.0531    0.7964   -1.5125 H         1 <0>         0.0538
     40 H7          0.2742    0.8552   -1.4969 H         1 <0>         0.0575
     41 H8          1.2161    2.3436   -1.2407 H         1 <0>         0.0525
     42 H9          1.1529   -0.0671    0.6305 H         1 <0>         0.0656
     43 H10         2.0948    1.4213    0.8867 H         1 <0>         0.0640
     44 H11        -2.1722    1.3962    1.0999 H         1 <0>         0.0625
     45 H12        -1.4179    1.2125   -0.5019 H         1 <0>         0.0684
     46 H13        -1.2443   -0.0736    0.7164 H         1 <0>         0.0624
     47 H14        -1.8365   -0.2946    2.9761 H         1 <0>         0.4048
     48 H15        -0.2864   -2.6043    2.4868 H         1 <0>         0.0698
     49 H16        -0.3206   -2.3133    4.2425 H         1 <0>         0.0709
     50 H17        -2.4252   -2.4521    5.5011 H         1 <0>         0.0654
     51 H18        -3.0673   -1.1235    4.5057 H         1 <0>         0.0631
     52 H19        -4.9334   -2.5794    3.7664 H         1 <0>         0.0749
     53 H20        -4.9044   -2.4291    5.5398 H         1 <0>         0.0698
     54 H21        -4.0728   -4.6553    2.6743 H         1 <0>         0.0724
     55 H22        -3.4306   -5.9839    3.6697 H         1 <0>         0.0700
     56 H23        -1.5936   -4.6783    2.6357 H         1 <0>         0.0673
     57 H24        -1.5645   -4.5280    4.4090 H         1 <0>         0.0648
     58 H25        -6.1853   -3.9704    6.5429 H         1 <0>         0.3908
     59 H26        -8.2565   -4.1522    7.7697 H         1 <0>         0.0709
     60 H27        -9.3288   -5.5322    7.4323 H         1 <0>         0.0966
     61 H28        -7.4556   -7.0958    7.8737 H         1 <0>         0.0800
     62 H29        -6.3832   -5.7158    8.2110 H         1 <0>         0.0774
     63 H30        -7.1274   -7.1867   11.8984 H         1 <0>         0.0979
     64 H31        -6.9089   -8.1410   10.4118 H         1 <0>         0.0737
     65 H32        -5.8365   -6.7610   10.7492 H         1 <0>         0.0726
     66 H33         2.0379    1.7614    3.2630 H         1 <0>         0.4151
     67 H34         1.2170    5.3179    6.0907 H         1 <0>         0.0598
     68 H35         0.8155    6.8954    5.3706 H         1 <0>         0.0709
     69 H36        -0.0016    5.4216    4.7974 H         1 <0>         0.0883
     70 H37         4.1319    6.0633    3.8986 H         1 <0>         0.0666
     71 H38         3.2293    7.2702    4.8457 H         1 <0>         0.0810
     72 H39         3.6308    5.6927    5.5658 H         1 <0>         0.0669
     73 H40         0.7018    5.9419    2.4571 H         1 <0>         0.0883
     74 H41         1.5189    7.4157    3.0303 H         1 <0>         0.0706
     75 H42         2.4215    6.2088    2.0831 H         1 <0>         0.0592
     76 O6        -10.0420   -4.7780    4.9851 O.co2     1 <0>        -0.7641
@<TRIPOS>BOND
     1    1    2 1
     2    1   39 1
     3    1   40 1
     4    1   41 1
     5    2    3 1
     6    2   42 1
     7    2   43 1
     8    3    4 1
     9    3    5 1
    10    3    6 1
    11    5   44 1
    12    5   45 1
    13    5   46 1
    14    6    7 1
    15    6    8 1
    16    6   31 1
    17    8    9 2
    18    8   10 am
    19   10   11 1
    20   10   47 1
    21   11   12 1
    22   11   48 1
    23   11   49 1
    24   12   13 1
    25   12   19 1
    26   12   14 1
    27   14   15 1
    28   14   50 1
    29   14   51 1
    30   15   16 1
    31   15   52 1
    32   15   53 1
    33   16   17 1
    34   16   18 1
    35   16   20 1
    36   18   19 1
    37   18   54 1
    38   18   55 1
    39   19   56 1
    40   19   57 1
    41   20   21 2
    42   20   22 am
    43   22   23 1
    44   22   58 1
    45   23   24 1
    46   23   25 1
    47   23   29 1
    48   25   26 1
    49   25   59 1
    50   25   60 1
    51   26   27 1
    52   26   61 1
    53   26   62 1
    54   27   28 1
    55   28   63 1
    56   28   64 1
    57   28   65 1
    58   29   30 2
    59   29   76 1
    60   31   32 am
    61   31   66 1
    62   32   33 2
    63   32   34 1
    64   34   35 1
    65   35   36 1
    66   35   37 1
    67   35   38 1
    68   36   67 1
    69   36   68 1
    70   36   69 1
    71   37   70 1
    72   37   71 1
    73   37   72 1
    74   38   73 1
    75   38   74 1
    76   38   75 1
@<TRIPOS>MOLECULE
ZINC33991187
   76    76     0     0     0
SMALL
USER_CHARGES

@<TRIPOS>ATOM
      1 C1         -0.0425    1.4320    0.2741 C.3       1 <0>        -0.1495
      2 C2         -0.0524   -0.0976    0.2441 C.3       1 <0>        -0.0957
      3 H1          0.5142   -0.4478   -0.6187 H         1 <0>         0.0966
      4 C3         -1.4736   -0.5889    0.1449 C.2       1 <0>        -0.1281
      5 C4         -1.8735   -1.2243   -0.9286 C.2       1 <0>        -0.1707
      6 C5         -0.8865   -1.5613   -2.0164 C.3       1 <0>        -0.1148
      7 C6         -3.3206   -1.6183   -1.0758 C.3       1 <0>         0.1625
      8 H2         -3.7109   -1.2241   -2.0141 H         1 <0>         0.1033
      9 C7         -3.4363   -3.1439   -1.0761 C.3       1 <0>        -0.1697
     10 H3         -2.7844   -3.5576   -1.8456 H         1 <0>         0.1038
     11 C8         -3.0192   -3.6873    0.2919 C.3       1 <0>        -0.1475
     12 C9         -4.8625   -3.5395   -1.3601 C.2       1 <0>         0.3547
     13 O1         -5.7631   -2.7769   -1.1038 O.2       1 <0>        -0.4282
     14 C10        -5.1648   -4.8867   -1.9640 C.3       1 <0>        -0.1721
     15 C11        -6.6763   -5.0353   -2.1486 C.3       1 <0>        -0.1165
     16 C12        -6.9832   -6.4031   -2.7617 C.3       1 <0>        -0.1129
     17 C13        -8.4948   -6.5517   -2.9462 C.3       1 <0>        -0.0924
     18 C14        -9.1799   -6.5831   -1.5759 C.3       1 <0>        -0.1424
     19 C15       -10.6509   -6.8441   -1.7645 C.2       1 <0>         0.5243
     20 O2        -11.4408   -6.4056   -0.9563 O.2       1 <0>        -0.4998
     21 N1        -11.1042   -7.5520   -2.8099 N.am      1 <0>        -0.6773
     22 C16       -10.2894   -8.0574   -3.7480 C.2       1 <0>         0.5253
     23 O3        -10.7633   -8.6798   -4.6741 O.2       1 <0>        -0.5034
     24 C17        -8.7976   -7.8662   -3.6734 C.3       1 <0>        -0.1395
     25 O4         -4.0732   -1.0838    0.0151 O.3       1 <0>        -0.5411
     26 C18         0.5853   -0.6370    1.5260 C.3       1 <0>         0.1262
     27 H4          0.5783   -1.7267    1.5047 H         1 <0>         0.1067
     28 C19         2.0282   -0.1382    1.6268 C.3       1 <0>         0.0918
     29 H5          2.0353    0.9516    1.6481 H         1 <0>         0.0696
     30 C20         2.6564   -0.6694    2.8894 C.2       1 <0>        -0.2033
     31 C21         3.7765   -1.3460    2.8293 C.2       1 <0>        -0.1266
     32 C22         4.4046   -1.8773    4.0919 C.3       1 <0>        -0.0901
     33 C23         4.6225   -3.3857    3.9576 C.3       1 <0>        -0.0798
     34 C24         5.2506   -3.9169    5.2202 C.2       1 <0>        -0.1531
     35 C25         4.6715   -4.9178    5.8824 C.2       1 <0>        -0.1977
     36 C26         5.2830   -5.4349    7.1116 C.2       1 <0>         0.5052
     37 O5          6.3249   -4.9471    7.5288 O.co2     1 <0>        -0.6966
     38 O6          4.7511   -6.3541    7.7197 O.co2     1 <0>        -0.7001
     39 O7          2.7710   -0.5973    0.4956 O.3       1 <0>        -0.3742
     40 C27         3.8322    0.2759    0.1038 C.3       1 <0>         0.0269
     41 O8         -0.1574   -0.1779    2.6572 O.3       1 <0>        -0.5449
     42 H6          0.9855    1.7874    0.3458 H         1 <0>         0.0572
     43 H7         -0.4968    1.8163   -0.6392 H         1 <0>         0.0607
     44 H8         -0.6090    1.7822    1.1369 H         1 <0>         0.0578
     45 H9         -2.1624   -0.4172    0.9588 H         1 <0>         0.1180
     46 H10        -0.1370   -2.2500   -1.6264 H         1 <0>         0.0713
     47 H11        -1.4103   -2.0285   -2.8504 H         1 <0>         0.0579
     48 H12        -0.3982   -0.6490   -2.3593 H         1 <0>         0.0663
     49 H13        -3.7309   -3.3545    1.0475 H         1 <0>         0.0618
     50 H14        -3.0048   -4.7768    0.2612 H         1 <0>         0.0673
     51 H15        -2.0246   -3.3177    0.5418 H         1 <0>         0.0757
     52 H16        -4.6706   -4.9701   -2.9320 H         1 <0>         0.0974
     53 H17        -4.8007   -5.6719   -1.3014 H         1 <0>         0.0989
     54 H18        -7.1705   -4.9519   -1.1806 H         1 <0>         0.0727
     55 H19        -7.0404   -4.2502   -2.8112 H         1 <0>         0.0706
     56 H20        -6.4891   -6.4865   -3.7296 H         1 <0>         0.0754
     57 H21        -6.6192   -7.1882   -2.0990 H         1 <0>         0.0736
     58 H22        -8.8763   -5.7141   -3.5301 H         1 <0>         0.0892
     59 H23        -8.7440   -7.3766   -0.9688 H         1 <0>         0.1147
     60 H24        -9.0411   -5.6238   -1.0772 H         1 <0>         0.1189
     61 H25       -12.0587   -7.7048   -2.8904 H         1 <0>         0.4121
     62 H26        -8.3843   -7.8285   -4.6813 H         1 <0>         0.1163
     63 H27        -8.3509   -8.6964   -3.1264 H         1 <0>         0.1145
     64 H28        -3.7803   -1.3923    0.8835 H         1 <0>         0.3713
     65 H29         2.1831   -0.4923    3.8439 H         1 <0>         0.1204
     66 H30         4.2498   -1.5231    1.8748 H         1 <0>         0.1142
     67 H31         5.3632   -1.3849    4.2559 H         1 <0>         0.0726
     68 H32         3.7452   -1.6792    4.9369 H         1 <0>         0.0672
     69 H33         3.6640   -3.8781    3.7936 H         1 <0>         0.0607
     70 H34         5.2819   -3.5837    3.1126 H         1 <0>         0.0645
     71 H35         6.1702   -3.4865    5.5884 H         1 <0>         0.1153
     72 H36         3.7520   -5.3482    5.5143 H         1 <0>         0.0926
     73 H37         4.3470   -0.1431   -0.7608 H         1 <0>         0.0870
     74 H38         3.4226    1.2522   -0.1551 H         1 <0>         0.0399
     75 H39         4.5366    0.3845    0.9285 H         1 <0>         0.0465
     76 H40        -0.1935    0.7849    2.7397 H         1 <0>         0.3711
@<TRIPOS>BOND
     1    1    2 1
     2    1   42 1
     3    1   43 1
     4    1   44 1
     5    2    3 1
     6    2    4 1
     7    2   26 1
     8    4    5 2
     9    4   45 1
    10    5    6 1
    11    5    7 1
    12    6   46 1
    13    6   47 1
    14    6   48 1
    15    7    8 1
    16    7    9 1
    17    7   25 1
    18    9   10 1
    19    9   11 1
    20    9   12 1
    21   11   49 1
    22   11   50 1
    23   11   51 1
    24   12   13 2
    25   12   14 1
    26   14   15 1
    27   14   52 1
    28   14   53 1
    29   15   16 1
    30   15   54 1
    31   15   55 1
    32   16   17 1
    33   16   56 1
    34   16   57 1
    35   17   24 1
    36   17   18 1
    37   17   58 1
    38   18   19 1
    39   18   59 1
    40   18   60 1
    41   19   20 2
    42   19   21 am
    43   21   22 am
    44   21   61 1
    45   22   23 2
    46   22   24 1
    47   24   62 1
    48   24   63 1
    49   25   64 1
    50   26   27 1
    51   26   28 1
    52   26   41 1
    53   28   29 1
    54   28   30 1
    55   28   39 1
    56   30   31 2
    57   30   65 1
    58   31   32 1
    59   31   66 1
    60   32   33 1
    61   32   67 1
    62   32   68 1
    63   33   34 1
    64   33   69 1
    65   33   70 1
    66   34   35 2
    67   34   71 1
    68   35   36 1
    69   35   72 1
    70   36   37 2
    71   36   38 1
    72   39   40 1
    73   40   73 1
    74   40   74 1
    75   40   75 1
    76   41   76 1
@<TRIPOS>MOLECULE
ZINC15721594
   69    68     0     0     0
SMALL
USER_CHARGES

@<TRIPOS>ATOM
      1 C1         -0.3849    1.3054   -0.1847 C.3       1 <0>        -0.1834
      2 C2         -0.3028   -0.2223   -0.1684 C.3       1 <0>         0.1353
      3 C3          0.4450   -0.6795    1.0857 C.3       1 <0>        -0.1836
      4 C4         -1.7158   -0.8089   -0.1620 C.3       1 <0>        -0.1366
      5 O1          0.3953   -0.6742   -1.3305 O.3       1 <0>        -0.3669
      6 C5          1.6619   -0.2455   -1.4881 C.2       1 <0>         0.6546
      7 O2          2.1608    0.4922   -0.6614 O.2       1 <0>        -0.5759
      8 N1          2.3763   -0.6345   -2.5626 N.am      1 <0>        -0.6716
      9 C6          3.7544   -0.1680   -2.7340 C.3       1 <0>         0.0937
     10 H1          4.2339   -0.0853   -1.7587 H         1 <0>         0.0840
     11 C7          4.5268   -1.1661   -3.5990 C.3       1 <0>        -0.1018
     12 C8          4.6403   -2.5008   -2.8598 C.3       1 <0>        -0.1316
     13 C9          5.4127   -3.4988   -3.7248 C.3       1 <0>         0.1412
     14 N2          5.5213   -4.7769   -3.0169 N.pl3     1 <0>        -0.7408
     15 C10         6.1759   -5.8288   -3.5998 C.2       1 <0>         0.6861
     16 N3          6.3657   -6.9599   -2.9145 N.2       1 <0>        -0.6506
     17 C11         5.8372   -7.0998   -1.7065 C.2       1 <0>         0.6267
     18 O3          4.8804   -7.8463   -1.5392 O.2       1 <0>        -0.5892
     19 O4          6.3524   -6.4212   -0.6634 O.3       1 <0>        -0.3846
     20 C12         5.7334   -6.6198    0.6091 C.3       1 <0>         0.1212
     21 C13         5.8237   -8.0976    0.9951 C.3       1 <0>        -0.1781
     22 C14         6.4501   -5.7728    1.6626 C.3       1 <0>        -0.1365
     23 C15         4.2636   -6.2017    0.5322 C.3       1 <0>        -0.1810
     24 N4          6.6249   -5.7241   -4.8537 N.2       1 <0>        -0.7228
     25 C16         7.2588   -6.7427   -5.4181 C.2       1 <0>         0.6160
     26 O5          7.4328   -7.7799   -4.7898 O.3       1 <0>        -0.5598
     27 O6          7.7115   -6.6372   -6.6822 O.3       1 <0>        -0.3563
     28 C17         7.4736   -5.3993   -7.3552 C.3       1 <0>         0.1331
     29 C18         8.1438   -4.2616   -6.5823 C.3       1 <0>        -0.1805
     30 C19         8.0552   -5.4673   -8.7688 C.3       1 <0>        -0.1373
     31 C20         5.9673   -5.1434   -7.4352 C.3       1 <0>        -0.1802
     32 C21         3.7483    1.1804   -3.4068 C.2       1 <0>         0.4918
     33 O7          2.6908    1.7033   -3.7146 O.co2     1 <0>        -0.6880
     34 O8          4.8008    1.7485   -3.6434 O.co2     1 <0>        -0.6972
     35 H2          0.6218    1.7234   -0.1893 H         1 <0>         0.0925
     36 H3         -0.9176    1.6311   -1.0782 H         1 <0>         0.0574
     37 H4         -0.9174    1.6501    0.7017 H         1 <0>         0.0587
     38 H5         -0.0875   -0.3348    1.9721 H         1 <0>         0.0606
     39 H6          0.5035   -1.7679    1.0973 H         1 <0>         0.0556
     40 H7          1.4517   -0.2615    1.0811 H         1 <0>         0.0904
     41 H8         -2.2485   -0.4832   -1.0554 H         1 <0>         0.0636
     42 H9         -1.6573   -1.8973   -0.1504 H         1 <0>         0.0629
     43 H10        -2.2483   -0.4643    0.7244 H         1 <0>         0.0722
     44 H11         1.9780   -1.2234   -3.2225 H         1 <0>         0.3961
     45 H12         3.9984   -1.3160   -4.5406 H         1 <0>         0.0647
     46 H13         5.5246   -0.7763   -3.8004 H         1 <0>         0.0889
     47 H14         5.1686   -2.3509   -1.9183 H         1 <0>         0.0621
     48 H15         3.6425   -2.8906   -2.6584 H         1 <0>         0.0595
     49 H16         4.8843   -3.6487   -4.6663 H         1 <0>         0.0617
     50 H17         6.4105   -3.1091   -3.9262 H         1 <0>         0.0609
     51 H18         5.1295   -4.8779   -2.1353 H         1 <0>         0.3931
     52 H19         6.8708   -8.3954    1.0499 H         1 <0>         0.0511
     53 H20         5.3515   -8.2491    1.9658 H         1 <0>         0.0534
     54 H21         5.3131   -8.7010    0.2446 H         1 <0>         0.0874
     55 H22         6.3857   -4.7200    1.3877 H         1 <0>         0.0623
     56 H23         5.9779   -5.9243    2.6333 H         1 <0>         0.0649
     57 H24         7.4971   -6.0707    1.7175 H         1 <0>         0.0588
     58 H25         3.7530   -6.8051   -0.2184 H         1 <0>         0.0859
     59 H26         3.7915   -6.3532    1.5029 H         1 <0>         0.0567
     60 H27         4.1993   -5.1489    0.2572 H         1 <0>         0.0541
     61 H28         9.2169   -4.4438   -6.5253 H         1 <0>         0.0404
     62 H29         7.9624   -3.3173   -7.0957 H         1 <0>         0.0515
     63 H30         7.7295   -4.2131   -5.5753 H         1 <0>         0.1084
     64 H31         7.5777   -6.2778   -9.3194 H         1 <0>         0.0546
     65 H32         7.8737   -4.5230   -9.2821 H         1 <0>         0.0662
     66 H33         9.1283   -5.6496   -8.7118 H         1 <0>         0.0550
     67 H34         5.5530   -5.0949   -6.4282 H         1 <0>         0.1081
     68 H35         5.7859   -4.1992   -7.9486 H         1 <0>         0.0509
     69 H36         5.4898   -5.9539   -7.9859 H         1 <0>         0.0400
@<TRIPOS>BOND
     1    1    2 1
     2    1   35 1
     3    1   36 1
     4    1   37 1
     5    2    3 1
     6    2    4 1
     7    2    5 1
     8    3   38 1
     9    3   39 1
    10    3   40 1
    11    4   41 1
    12    4   42 1
    13    4   43 1
    14    5    6 1
    15    6    7 2
    16    6    8 am
    17    8    9 1
    18    8   44 1
    19    9   10 1
    20    9   11 1
    21    9   32 1
    22   11   12 1
    23   11   45 1
    24   11   46 1
    25   12   13 1
    26   12   47 1
    27   12   48 1
    28   13   14 1
    29   13   49 1
    30   13   50 1
    31   14   15 1
    32   14   51 1
    33   15   16 2
    34   15   24 1
    35   16   17 1
    36   17   18 2
    37   17   19 1
    38   19   20 1
    39   20   21 1
    40   20   22 1
    41   20   23 1
    42   21   52 1
    43   21   53 1
    44   21   54 1
    45   22   55 1
    46   22   56 1
    47   22   57 1
    48   23   58 1
    49   23   59 1
    50   23   60 1
    51   24   25 2
    52   25   26 1
    53   25   27 1
    54   27   28 1
    55   28   29 1
    56   28   30 1
    57   28   31 1
    58   29   61 1
    59   29   62 1
    60   29   63 1
    61   30   64 1
    62   30   65 1
    63   30   66 1
    64   31   67 1
    65   31   68 1
    66   31   69 1
    67   32   33 2
    68   32   34 1
@<TRIPOS>MOLECULE
ZINC40082191
   74    76     0     0     0
SMALL
USER_CHARGES

@<TRIPOS>ATOM
      1 C1          2.3629  -13.6157    7.4813 C.3       1 <0>        -0.1491
      2 C2          3.4213  -12.7582    6.7846 C.3       1 <0>        -0.1231
      3 C3          2.9435  -11.3059    6.7263 C.3       1 <0>         0.0594
      4 O1          3.8801  -10.5259    5.9803 O.3       1 <0>        -0.3204
      5 C4          3.6516   -9.1902    5.9099 C.ar      1 <0>         0.1247
      6 C5          2.4912   -8.6553    6.4590 C.ar      1 <0>        -0.2158
      7 C6          2.2558   -7.3010    6.3901 C.ar      1 <0>        -0.0511
      8 C7          3.1854   -6.4625    5.7669 C.ar      1 <0>        -0.1153
      9 C8          4.3507   -7.0043    5.2162 C.ar      1 <0>         0.0029
     10 C9          4.5809   -8.3595    5.2941 C.ar      1 <0>        -0.1538
     11 C10         5.3557   -6.1056    4.5430 C.3       1 <0>        -0.1093
     12 C11         2.9368   -5.0095    5.6903 C.2       1 <0>         0.4801
     13 O2          2.1150   -4.5733    4.9058 O.2       1 <0>        -0.5224
     14 C12         3.6801   -4.0917    6.5594 C.2       1 <0>        -0.4774
     15 C13         4.5747   -4.4324    7.5159 C.2       1 <0>         0.2784
     16 C14         5.0915   -3.2051    8.1568 C.2       1 <0>         0.5039
     17 O3          5.9108   -3.1787    9.0537 O.2       1 <0>        -0.5398
     18 N1          4.5208   -2.1212    7.6004 N.am      1 <0>        -0.6005
     19 C15         3.5996   -2.5829    6.5553 C.3       1 <0>         0.2666
     20 H1          3.9057   -2.1940    5.5841 H         1 <0>         0.0779
     21 C16         2.1954   -2.1381    6.8733 C.ar      1 <0>        -0.0547
     22 C17         1.7128   -2.2477    8.1643 C.ar      1 <0>        -0.0991
     23 C18         0.4254   -1.8410    8.4611 C.ar      1 <0>        -0.1765
     24 C19        -0.3844   -1.3217    7.4638 C.ar      1 <0>         0.0866
     25 C20         0.1014   -1.2109    6.1646 C.ar      1 <0>         0.0969
     26 C21         1.3945   -1.6159    5.8748 C.ar      1 <0>        -0.1375
     27 O4         -0.6895   -0.7018    5.1824 O.3       1 <0>        -0.3103
     28 C22        -0.1631   -0.7139    3.8539 C.3       1 <0>         0.0526
     29 C23        -1.1714   -0.0705    2.8999 C.3       1 <0>        -0.1475
     30 O5         -1.6513   -0.9215    7.7541 O.3       1 <0>        -0.3094
     31 C24        -2.0827   -1.0652    9.1088 C.3       1 <0>         0.0543
     32 C25        -3.5230   -0.5662    9.2411 C.3       1 <0>        -0.1491
     33 C26         4.7782   -0.7267    7.9681 C.3       1 <0>         0.1388
     34 C27         5.9306   -0.1807    7.1227 C.3       1 <0>         0.0455
     35 O6          5.5378   -0.1431    5.7493 O.3       1 <0>        -0.3683
     36 C28         6.5478    0.3542    4.8692 C.3       1 <0>         0.0621
     37 C29         6.0202    0.3497    3.4331 C.3       1 <0>         0.0783
     38 O7          4.9343    1.2718    3.3217 O.3       1 <0>        -0.5648
     39 O8          4.9383   -5.6961    7.8348 O.3       1 <0>        -0.6146
     40 H2          1.4061  -13.4962    6.9729 H         1 <0>         0.0566
     41 H3          2.6639  -14.6627    7.4478 H         1 <0>         0.0613
     42 H4          2.2646  -13.2989    8.5197 H         1 <0>         0.0571
     43 H5          4.3563  -12.8110    7.3422 H         1 <0>         0.0717
     44 H6          3.5806  -13.1292    5.7722 H         1 <0>         0.0716
     45 H7          1.9680  -11.2634    6.2419 H         1 <0>         0.0579
     46 H8          2.8643  -10.9085    7.7382 H         1 <0>         0.0604
     47 H9          1.7736   -9.3036    6.9397 H         1 <0>         0.1192
     48 H10         1.3542   -6.8865    6.8164 H         1 <0>         0.1168
     49 H11         5.4828   -8.7783    4.8726 H         1 <0>         0.1230
     50 H12         6.1178   -5.8088    5.2636 H         1 <0>         0.0792
     51 H13         5.8252   -6.6400    3.7171 H         1 <0>         0.0582
     52 H14         4.8512   -5.2179    4.1614 H         1 <0>         0.0652
     53 H15         2.3430   -2.6524    8.9424 H         1 <0>         0.1177
     54 H16         0.0506   -1.9284    9.4702 H         1 <0>         0.1262
     55 H17         1.7753   -1.5275    4.8680 H         1 <0>         0.1322
     56 H18         0.7709   -0.1525    3.8281 H         1 <0>         0.0599
     57 H19         0.0229   -1.7429    3.5462 H         1 <0>         0.0641
     58 H20        -2.1318   -0.5782    2.9899 H         1 <0>         0.0638
     59 H21        -1.2918    0.9825    3.1545 H         1 <0>         0.0613
     60 H22        -0.8090   -0.1575    1.8756 H         1 <0>         0.0739
     61 H23        -2.0342   -2.1155    9.3961 H         1 <0>         0.0579
     62 H24        -1.4341   -0.4799    9.7607 H         1 <0>         0.0570
     63 H25        -4.1716   -1.1515    8.5892 H         1 <0>         0.0643
     64 H26        -3.8520   -0.6758   10.2744 H         1 <0>         0.0736
     65 H27        -3.5715    0.4841    8.9538 H         1 <0>         0.0638
     66 H28         3.8824   -0.1323    7.7884 H         1 <0>         0.0853
     67 H29         5.0445   -0.6725    9.0237 H         1 <0>         0.0927
     68 H30         6.1809    0.8263    7.4567 H         1 <0>         0.0547
     69 H31         6.8010   -0.8272    7.2341 H         1 <0>         0.0525
     70 H32         6.8109    1.3722    5.1565 H         1 <0>         0.0513
     71 H33         7.4310   -0.2813    4.9339 H         1 <0>         0.0602
     72 H34         6.8185    0.6443    2.7518 H         1 <0>         0.0564
     73 H35         5.6744   -0.6516    3.1762 H         1 <0>         0.0573
     74 H36         4.5496    1.3213    2.4358 H         1 <0>         0.3763
@<TRIPOS>BOND
     1    1    2 1
     2    1   40 1
     3    1   41 1
     4    1   42 1
     5    2    3 1
     6    2   43 1
     7    2   44 1
     8    3    4 1
     9    3   45 1
    10    3   46 1
    11    4    5 1
    12    5   10 ar
    13    5    6 ar
    14    6    7 ar
    15    6   47 1
    16    7    8 ar
    17    7   48 1
    18    8    9 ar
    19    8   12 1
    20    9   10 ar
    21    9   11 1
    22   10   49 1
    23   11   50 1
    24   11   51 1
    25   11   52 1
    26   12   13 2
    27   12   14 1
    28   14   19 1
    29   14   15 2
    30   15   16 1
    31   15   39 1
    32   16   17 2
    33   16   18 am
    34   18   19 1
    35   18   33 1
    36   19   20 1
    37   19   21 1
    38   21   26 ar
    39   21   22 ar
    40   22   23 ar
    41   22   53 1
    42   23   24 ar
    43   23   54 1
    44   24   25 ar
    45   24   30 1
    46   25   26 ar
    47   25   27 1
    48   26   55 1
    49   27   28 1
    50   28   29 1
    51   28   56 1
    52   28   57 1
    53   29   58 1
    54   29   59 1
    55   29   60 1
    56   30   31 1
    57   31   32 1
    58   31   61 1
    59   31   62 1
    60   32   63 1
    61   32   64 1
    62   32   65 1
    63   33   34 1
    64   33   66 1
    65   33   67 1
    66   34   35 1
    67   34   68 1
    68   34   69 1
    69   35   36 1
    70   36   37 1
    71   36   70 1
    72   36   71 1
    73   37   38 1
    74   37   72 1
    75   37   73 1
    76   38   74 1
@<TRIPOS>MOLECULE
ZINC40091542
   72    74     0     0     0
SMALL
USER_CHARGES

@<TRIPOS>ATOM
      1 C1         -5.2521   -4.5765   -6.1760 C.3       1 <0>        -0.1497
      2 C2         -4.3000   -5.3092   -5.2286 C.3       1 <0>        -0.1230
      3 C3         -2.8538   -4.9759   -5.6006 C.3       1 <0>         0.0578
      4 O1         -1.9646   -5.6602   -4.7157 O.3       1 <0>        -0.3135
      5 C4         -0.6359   -5.5417   -4.9644 C.ar      1 <0>         0.1404
      6 C5         -0.1923   -4.6943   -5.9740 C.ar      1 <0>        -0.2213
      7 C6          1.1546   -4.5708   -6.2293 C.ar      1 <0>        -0.0280
      8 C7          2.0774   -5.2989   -5.4718 C.ar      1 <0>        -0.1681
      9 C8          1.6272   -6.1497   -4.4578 C.ar      1 <0>        -0.0371
     10 C9          0.2785   -6.2634   -4.2055 C.ar      1 <0>        -0.1353
     11 C10        -0.2076   -7.1757   -3.1090 C.3       1 <0>        -0.0995
     12 C11         3.5227   -5.1700   -5.7423 C.2       1 <0>         0.5058
     13 O2          4.3199   -5.8570   -5.1311 O.2       1 <0>        -0.4769
     14 C12         3.9981   -4.2141   -6.7477 C.2       1 <0>        -0.4981
     15 C13         4.6235   -4.5102   -7.9106 C.2       1 <0>         0.2608
     16 C14         4.9323   -3.2559   -8.6289 C.2       1 <0>         0.5106
     17 O3          5.4925   -3.1884   -9.7049 O.2       1 <0>        -0.5405
     18 N1          4.5013   -2.2000   -7.9151 N.am      1 <0>        -0.6041
     19 C15         3.8781   -2.7092   -6.6878 C.3       1 <0>         0.2708
     20 H1          2.8284   -2.4182   -6.6491 H         1 <0>         0.0770
     21 C16         4.6085   -2.1788   -5.4811 C.ar      1 <0>        -0.0627
     22 C17         5.9903   -2.1343   -5.4756 C.ar      1 <0>        -0.0880
     23 C18         6.6649   -1.6486   -4.3711 C.ar      1 <0>        -0.1723
     24 C19         5.9562   -1.2045   -3.2664 C.ar      1 <0>         0.0888
     25 C20         4.5653   -1.2489   -3.2720 C.ar      1 <0>         0.0961
     26 C21         3.8952   -1.7325   -4.3843 C.ar      1 <0>        -0.1578
     27 O4          3.8652   -0.8142   -2.1902 O.3       1 <0>        -0.3102
     28 C22         2.4479   -0.9938   -2.2197 C.3       1 <0>         0.0279
     29 O5          6.6183   -0.7268   -2.1788 O.3       1 <0>        -0.3042
     30 C23         8.0458   -0.7115   -2.2434 C.3       1 <0>         0.0847
     31 C24         8.6008   -0.1537   -0.9581 C.2       1 <0>        -0.1490
     32 C25         9.6096   -0.7462   -0.3687 C.2       1 <0>        -0.1777
     33 C26         4.6262   -0.7915   -8.2983 C.3       1 <0>         0.1390
     34 C27         3.3932   -0.3698   -9.1000 C.3       1 <0>         0.0453
     35 O6          2.2365   -0.4328   -8.2632 O.3       1 <0>        -0.3690
     36 C28         1.0237   -0.0565   -8.9186 C.3       1 <0>         0.0613
     37 C29        -0.1421   -0.1609   -7.9334 C.3       1 <0>         0.0790
     38 O7          0.0332    0.7942   -6.8850 O.3       1 <0>        -0.5636
     39 O8          4.9191   -5.7564   -8.3466 O.3       1 <0>        -0.6570
     40 H2         -5.0935   -3.5015   -6.0907 H         1 <0>         0.0569
     41 H3         -5.0587   -4.8921   -7.2012 H         1 <0>         0.0577
     42 H4         -6.2824   -4.8139   -5.9110 H         1 <0>         0.0627
     43 H5         -4.4934   -4.9936   -4.2034 H         1 <0>         0.0721
     44 H6         -4.4586   -6.3842   -5.3138 H         1 <0>         0.0725
     45 H7         -2.6604   -5.2915   -6.6258 H         1 <0>         0.0620
     46 H8         -2.6952   -3.9009   -5.5153 H         1 <0>         0.0602
     47 H9         -0.9057   -4.1326   -6.5588 H         1 <0>         0.1247
     48 H10         1.4982   -3.9128   -7.0137 H         1 <0>         0.1367
     49 H11         2.3367   -6.7141   -3.8707 H         1 <0>         0.1353
     50 H12        -0.3808   -8.1722   -3.5155 H         1 <0>         0.0641
     51 H13         0.5442   -7.2302   -2.3216 H         1 <0>         0.0634
     52 H14        -1.1378   -6.7848   -2.6967 H         1 <0>         0.0659
     53 H15         6.5439   -2.4801   -6.3361 H         1 <0>         0.1217
     54 H16         7.7444   -1.6155   -4.3691 H         1 <0>         0.1288
     55 H17         2.8157   -1.7645   -4.3927 H         1 <0>         0.1319
     56 H18         2.0126   -0.6010   -1.3008 H         1 <0>         0.0940
     57 H19         2.0320   -0.4616   -3.0752 H         1 <0>         0.0540
     58 H20         2.2179   -2.0558   -2.3056 H         1 <0>         0.0536
     59 H21         8.4139   -1.7272   -2.3876 H         1 <0>         0.0659
     60 H22         8.3650   -0.0874   -3.0781 H         1 <0>         0.0691
     61 H23         8.1669    0.7344   -0.5230 H         1 <0>         0.1180
     62 H24        10.0435   -1.6343   -0.8038 H         1 <0>         0.0995
     63 H25        10.0074   -0.3465    0.5524 H         1 <0>         0.1053
     64 H26         4.7044   -0.1766   -7.4017 H         1 <0>         0.0846
     65 H27         5.5194   -0.6589   -8.9089 H         1 <0>         0.0931
     66 H28         3.5256    0.6502   -9.4606 H         1 <0>         0.0548
     67 H29         3.2645   -1.0414   -9.9488 H         1 <0>         0.0533
     68 H30         1.1070    0.9701   -9.2755 H         1 <0>         0.0516
     69 H31         0.8460   -0.7216   -9.7637 H         1 <0>         0.0605
     70 H32        -1.0778    0.0398   -8.4551 H         1 <0>         0.0559
     71 H33        -0.1706   -1.1647   -7.5093 H         1 <0>         0.0557
     72 H34        -0.6709    0.7844   -6.2222 H         1 <0>         0.3755
@<TRIPOS>BOND
     1    1    2 1
     2    1   40 1
     3    1   41 1
     4    1   42 1
     5    2    3 1
     6    2   43 1
     7    2   44 1
     8    3    4 1
     9    3   45 1
    10    3   46 1
    11    4    5 1
    12    5   10 ar
    13    5    6 ar
    14    6    7 ar
    15    6   47 1
    16    7    8 ar
    17    7   48 1
    18    8    9 ar
    19    8   12 1
    20    9   10 ar
    21    9   49 1
    22   10   11 1
    23   11   50 1
    24   11   51 1
    25   11   52 1
    26   12   13 2
    27   12   14 1
    28   14   19 1
    29   14   15 2
    30   15   16 1
    31   15   39 1
    32   16   17 2
    33   16   18 am
    34   18   19 1
    35   18   33 1
    36   19   20 1
    37   19   21 1
    38   21   26 ar
    39   21   22 ar
    40   22   23 ar
    41   22   53 1
    42   23   24 ar
    43   23   54 1
    44   24   25 ar
    45   24   29 1
    46   25   26 ar
    47   25   27 1
    48   26   55 1
    49   27   28 1
    50   28   56 1
    51   28   57 1
    52   28   58 1
    53   29   30 1
    54   30   31 1
    55   30   59 1
    56   30   60 1
    57   31   32 2
    58   31   61 1
    59   32   62 1
    60   32   63 1
    61   33   34 1
    62   33   64 1
    63   33   65 1
    64   34   35 1
    65   34   66 1
    66   34   67 1
    67   35   36 1
    68   36   37 1
    69   36   68 1
    70   36   69 1
    71   37   38 1
    72   37   70 1
    73   37   71 1
    74   38   72 1
@<TRIPOS>MOLECULE
ZINC14360096
   41    43     0     0     0
SMALL
USER_CHARGES
3,5,6-trichloro-4-[(N'E)-N'-[[4-(1-methylimidazol-2-yl)sulfanyl-3-nitro-phenyl]methylene]hydrazino]pyridine-2-carboxylic acid
@<TRIPOS>ATOM
      1 C1          3.7531    2.8667   -1.6767 C.3       1 <0>         0.0687
      2 N1          2.8704    3.8379   -2.3276 N.pl3     1 <0>        -0.4248
      3 C2          2.8262    4.1270   -3.6575 C.2       1 <0>        -0.0537
      4 C3          1.8596    5.0969   -3.8232 C.2       1 <0>        -0.0158
      5 N2          1.3394    5.3689   -2.6339 N.2       1 <0>        -0.4766
      6 C4          1.9347    4.6251   -1.7140 C.2       1 <0>         0.1496
      7 S1          1.5809    4.6459    0.0119 S.3       1 <0>         0.1620
      8 C5          0.4531    5.9327    0.0687 C.ar      1 <0>        -0.1182
      9 C6         -0.9250    5.6560    0.1857 C.ar      1 <0>        -0.0399
     10 C7         -1.8201    6.6723    0.2314 C.ar      1 <0>        -0.0665
     11 C8         -1.3705    8.0136    0.1615 C.ar      1 <0>         0.0317
     12 C9          0.0138    8.2880    0.0441 C.ar      1 <0>        -0.0571
     13 C10         0.9045    7.2671    0.0044 C.ar      1 <0>         0.0665
     14 N3          2.3522    7.5532   -0.1122 N.pl3     1 <0>        -0.0205
     15 O1          2.7745    8.7992   -0.1723 O.2       1 <0>        -0.1857
     16 O2          3.2179    6.5616   -0.1557 O.3       1 <0>        -0.1351
     17 C11        -2.2966    9.0706    0.2091 C.2       1 <0>        -0.0037
     18 N4         -3.5887    8.8129    0.3191 N.2       1 <0>        -0.1760
     19 N5         -4.4383    9.7825    0.3628 N.pl3     1 <0>        -0.4857
     20 C12        -5.7919    9.5126    0.4781 C.ar      1 <0>         0.2265
     21 C13        -6.6968   10.5181    0.8373 C.ar      1 <0>        -0.0968
     22 C14        -8.0486   10.2016    0.9413 C.ar      1 <0>         0.1686
     23 N6         -8.4760    8.9653    0.7040 N.ar      1 <0>        -0.4156
     24 C15        -7.6519    7.9974    0.3644 C.ar      1 <0>         0.2029
     25 C16        -6.2908    8.2305    0.2332 C.ar      1 <0>        -0.1035
     26 Cl1        -5.2191    6.9433   -0.2234 Cl        1 <0>        -0.0145
     27 Cl2        -8.2787    6.4056    0.0696 Cl        1 <0>        -0.0084
     28 C17        -9.0192   11.2515    1.3203 C.2       1 <0>         0.4981
     29 O3         -8.6354   12.3829    1.5389 O.co2     1 <0>        -0.5903
     30 Cl3        -6.1427   12.1338    1.1474 Cl        1 <0>         0.0001
     31 H1          4.6787    3.3594   -1.3789 H         1 <0>         0.0873
     32 H2          3.2581    2.4598   -0.7949 H         1 <0>         0.0891
     33 H3          3.9793    2.0583   -2.3719 H         1 <0>         0.0912
     34 H4          3.4344    3.6851   -4.4329 H         1 <0>         0.1800
     35 H5          1.5739    5.5534   -4.7593 H         1 <0>         0.1728
     36 H6         -1.2672    4.6330    0.2393 H         1 <0>         0.1571
     37 H7         -2.8752    6.4598    0.3213 H         1 <0>         0.1532
     38 H8          0.3598    9.3097   -0.0094 H         1 <0>         0.1623
     39 H9         -1.9525   10.0929    0.1557 H         1 <0>         0.1297
     40 H10        -4.1293   10.7007    0.3149 H         1 <0>         0.3981
     41 O4        -10.3286   10.9528    1.4229 O.co2     1 <0>        -0.7070
@<TRIPOS>BOND
     1    1    2 1
     2    1   31 1
     3    1   32 1
     4    1   33 1
     5    2    6 1
     6    2    3 1
     7    3    4 2
     8    3   34 1
     9    4    5 1
    10    4   35 1
    11    5    6 2
    12    6    7 1
    13    7    8 1
    14    8   13 ar
    15    8    9 ar
    16    9   10 ar
    17    9   36 1
    18   10   11 ar
    19   10   37 1
    20   11   12 ar
    21   11   17 1
    22   12   13 ar
    23   12   38 1
    24   13   14 1
    25   14   15 2
    26   14   16 1
    27   17   18 2
    28   17   39 1
    29   18   19 1
    30   19   20 1
    31   19   40 1
    32   20   25 ar
    33   20   21 ar
    34   21   22 ar
    35   21   30 1
    36   22   23 ar
    37   22   28 1
    38   23   24 ar
    39   24   25 ar
    40   24   27 1
    41   25   26 1
    42   28   29 2
    43   28   41 1
@<TRIPOS>MOLECULE
ZINC35693308
   72    75     0     0     0
SMALL
USER_CHARGES

@<TRIPOS>ATOM
      1 C1         -4.3028    2.0019    2.7501 C.3       1 <0>        -0.1841
      2 C2         -3.0508    1.8170    1.8903 C.3       1 <0>         0.1127
      3 N1         -3.0398    0.4641    1.3284 N.am      1 <0>        -0.6152
      4 C3         -3.7886    0.1736    0.1032 C.3       1 <0>         0.1129
      5 C4         -2.8896    0.4095   -1.1121 C.3       1 <0>        -0.1660
      6 C5         -2.3407   -0.5134    1.9386 C.2       1 <0>         0.6091
      7 O1         -2.2687   -1.6196    1.4308 O.2       1 <0>        -0.5360
      8 C6         -1.6957   -0.2580    3.1582 C.2       1 <0>        -0.3687
      9 C7         -2.3773   -0.3385    4.3554 C.2       1 <0>         0.2292
     10 N2         -1.7564   -0.0950    5.4990 N.2       1 <0>        -0.5942
     11 C8         -0.4859    0.2330    5.6088 C.2       1 <0>         0.3256
     12 N3          0.3623    0.3651    4.5447 N.pl3     1 <0>        -0.5240
     13 C9         -0.2291    0.1084    3.2045 C.3       1 <0>         0.2711
     14 H1         -0.0882    1.0055    2.6017 H         1 <0>         0.0620
     15 C10         0.5485   -1.0074    2.5553 C.ar      1 <0>        -0.0660
     16 C11         0.7456   -2.1969    3.2314 C.ar      1 <0>        -0.0798
     17 C12         1.4589   -3.2203    2.6359 C.ar      1 <0>        -0.1179
     18 C13         1.9747   -3.0544    1.3641 C.ar      1 <0>        -0.1215
     19 C14         1.7768   -1.8653    0.6877 C.ar      1 <0>        -0.1184
     20 C15         1.0598   -0.8434    1.2815 C.ar      1 <0>        -0.0971
     21 C16         1.6687    0.7140    4.8241 C.2       1 <0>         0.2321
     22 C17         2.0054    0.8968    6.1198 C.2       1 <0>        -0.3026
     23 S1          0.4627    0.5741    6.9507 S.3       1 <0>         0.1106
     24 C18         2.6583    0.8804    3.7499 C.2       1 <0>        -0.4516
     25 C19         3.9561    1.0736    4.0539 C.2       1 <0>         0.5011
     26 O2          4.3731    0.9740    5.3396 O.3       1 <0>        -0.6981
     27 N4          4.8644    1.3742    3.0528 N.pl3     1 <0>        -0.6402
     28 C20         4.4457    2.1299    1.8644 C.3       1 <0>         0.1338
     29 C21         5.3728    3.3378    1.6964 C.3       1 <0>        -0.1347
     30 C22         6.8259    2.8591    1.6572 C.3       1 <0>        -0.0970
     31 C23         7.1717    2.1646    2.9763 C.3       1 <0>        -0.0966
     32 H2          7.0191    2.8579    3.8034 H         1 <0>         0.1120
     33 C24         6.2664    0.9486    3.1617 C.3       1 <0>         0.1498
     34 C25         8.6123    1.7229    2.9496 C.2       1 <0>         0.4728
     35 O3          9.2931    1.9410    1.9755 O.2       1 <0>        -0.5145
     36 O4          9.1391    1.0872    4.0080 O.3       1 <0>        -0.3462
     37 C26        10.5106    0.6971    3.9138 C.3       1 <0>         0.0591
     38 C27        10.9300   -0.0082    5.2051 C.3       1 <0>        -0.1524
     39 C28        -3.8389   -0.7057    4.3611 C.3       1 <0>        -0.1076
     40 H3         -4.2722    2.9797    3.2309 H         1 <0>         0.0626
     41 H4         -5.1896    1.9345    2.1199 H         1 <0>         0.0532
     42 H5         -4.3385    1.2233    3.5120 H         1 <0>         0.0741
     43 H6         -3.0551    2.5467    1.0806 H         1 <0>         0.0694
     44 H7         -2.1628    1.9622    2.5055 H         1 <0>         0.0800
     45 H8         -4.1171   -0.8657    0.1159 H         1 <0>         0.0791
     46 H9         -4.6579    0.8286    0.0448 H         1 <0>         0.0699
     47 H10        -2.0203   -0.2456   -1.0536 H         1 <0>         0.0604
     48 H11        -3.4467    0.1934   -2.0236 H         1 <0>         0.0603
     49 H12        -2.5611    1.4488   -1.1248 H         1 <0>         0.0524
     50 H13         0.3427   -2.3265    4.2250 H         1 <0>         0.1031
     51 H14         1.6136   -4.1494    3.1644 H         1 <0>         0.1136
     52 H15         2.5326   -3.8538    0.8992 H         1 <0>         0.1134
     53 H16         2.1800   -1.7355   -0.3057 H         1 <0>         0.1135
     54 H17         0.9020    0.0843    0.7516 H         1 <0>         0.1082
     55 H18         2.9614    1.1686    6.5422 H         1 <0>         0.2286
     56 H19         2.3448    0.8476    2.7170 H         1 <0>         0.0890
     57 H20         4.5134    1.4920    0.9832 H         1 <0>         0.0453
     58 H21         3.4189    2.4724    1.9922 H         1 <0>         0.0797
     59 H22         5.1342    3.8529    0.7659 H         1 <0>         0.0710
     60 H23         5.2371    4.0201    2.5356 H         1 <0>         0.0672
     61 H24         6.9550    2.1578    0.8328 H         1 <0>         0.0683
     62 H25         7.4862    3.7143    1.5130 H         1 <0>         0.0662
     63 H26         6.4405    0.5119    4.1451 H         1 <0>         0.0957
     64 H27         6.4859    0.2122    2.3886 H         1 <0>         0.0446
     65 H28        10.6381    0.0179    3.0709 H         1 <0>         0.0649
     66 H29        11.1304    1.5813    3.7650 H         1 <0>         0.0639
     67 H30        11.9762   -0.3057    5.1333 H         1 <0>         0.0760
     68 H31        10.8025    0.6710    6.0480 H         1 <0>         0.0670
     69 H32        10.3102   -0.8924    5.3540 H         1 <0>         0.0685
     70 H33        -3.9428   -1.7809    4.5075 H         1 <0>         0.0757
     71 H34        -4.3429   -0.1784    5.1710 H         1 <0>         0.0767
     72 H35        -4.2881   -0.4236    3.4089 H         1 <0>         0.0750
@<TRIPOS>BOND
     1    1    2 1
     2    1   40 1
     3    1   41 1
     4    1   42 1
     5    2    3 1
     6    2   43 1
     7    2   44 1
     8    3    4 1
     9    3    6 am
    10    4    5 1
    11    4   45 1
    12    4   46 1
    13    5   47 1
    14    5   48 1
    15    5   49 1
    16    6    7 2
    17    6    8 1
    18    8   13 1
    19    8    9 2
    20    9   10 1
    21    9   39 1
    22   10   11 2
    23   11   23 1
    24   11   12 1
    25   12   13 1
    26   12   21 1
    27   13   14 1
    28   13   15 1
    29   15   20 ar
    30   15   16 ar
    31   16   17 ar
    32   16   50 1
    33   17   18 ar
    34   17   51 1
    35   18   19 ar
    36   18   52 1
    37   19   20 ar
    38   19   53 1
    39   20   54 1
    40   21   22 2
    41   21   24 1
    42   22   23 1
    43   22   55 1
    44   24   25 2
    45   24   56 1
    46   25   26 1
    47   25   27 1
    48   27   33 1
    49   27   28 1
    50   28   29 1
    51   28   57 1
    52   28   58 1
    53   29   30 1
    54   29   59 1
    55   29   60 1
    56   30   31 1
    57   30   61 1
    58   30   62 1
    59   31   32 1
    60   31   33 1
    61   31   34 1
    62   33   63 1
    63   33   64 1
    64   34   35 2
    65   34   36 1
    66   36   37 1
    67   37   38 1
    68   37   65 1
    69   37   66 1
    70   38   67 1
    71   38   68 1
    72   38   69 1
    73   39   70 1
    74   39   71 1
    75   39   72 1
@<TRIPOS>MOLECULE
ZINC36053140
   69    72     0     0     0
SMALL
USER_CHARGES

@<TRIPOS>ATOM
      1 C1          7.0167   -9.3865   -3.2717 C.3       1 <0>        -0.1525
      2 C2          5.7087   -8.8873   -2.6546 C.3       1 <0>         0.0585
      3 O1          5.1946   -7.8075   -3.4367 O.3       1 <0>        -0.3472
      4 C3          4.0986   -7.1867   -2.9727 C.2       1 <0>         0.4726
      5 O2          3.6462   -7.4861   -1.8931 O.2       1 <0>        -0.5135
      6 C4          3.4324   -6.1165   -3.7984 C.3       1 <0>        -0.0967
      7 H1          3.2111   -6.5079   -4.7913 H         1 <0>         0.1110
      8 C5          2.1316   -5.6826   -3.1188 C.3       1 <0>        -0.0971
      9 C6          1.4378   -4.6192   -3.9731 C.3       1 <0>        -0.1340
     10 C7          2.3500   -3.3948   -4.0974 C.3       1 <0>         0.1347
     11 N1          3.6549   -3.8279   -4.6154 N.pl3     1 <0>        -0.6415
     12 C8          4.3676   -4.9093   -3.9214 C.3       1 <0>         0.1502
     13 C9          4.2029   -3.2287   -5.7370 C.2       1 <0>         0.5017
     14 O3          4.9659   -3.9556   -6.5892 O.3       1 <0>        -0.6975
     15 C10         3.9778   -1.9234   -5.9810 C.2       1 <0>        -0.4534
     16 C11         4.4211   -1.3255   -7.2486 C.2       1 <0>         0.2307
     17 C12         4.9144   -2.0898   -8.2478 C.2       1 <0>        -0.2995
     18 S1          5.2784   -0.8730   -9.4974 S.3       1 <0>         0.1443
     19 C13         4.7837    0.5010   -8.6701 C.2       1 <0>         0.3238
     20 N2          4.7753    1.7720   -9.0160 N.2       1 <0>        -0.5958
     21 C14         4.3488    2.7607   -8.2472 C.2       1 <0>         0.3000
     22 C15         3.8654    2.5028   -6.9788 C.2       1 <0>        -0.3876
     23 C16         3.8440    1.0647   -6.5111 C.3       1 <0>         0.2606
     24 H2          4.4378    0.9995   -5.5994 H         1 <0>         0.0743
     25 N3          4.3429    0.0362   -7.4626 N.pl3     1 <0>        -0.5098
     26 C17         2.4216    0.7123   -6.1595 C.ar      1 <0>        -0.0746
     27 C18         2.0499    0.5785   -4.8346 C.ar      1 <0>        -0.0739
     28 C19         0.7454    0.2553   -4.5121 C.ar      1 <0>        -0.1324
     29 C20        -0.1880    0.0663   -5.5144 C.ar      1 <0>        -0.1171
     30 C21         0.1834    0.2010   -6.8389 C.ar      1 <0>        -0.1272
     31 C22         1.4873    0.5285   -7.1613 C.ar      1 <0>        -0.0563
     32 C23         1.8910    0.6805   -8.6053 C.3       1 <0>        -0.1298
     33 C24         3.4110    3.5386   -6.1535 C.2       1 <0>         0.5370
     34 O4          3.3459    4.6769   -6.5841 O.2       1 <0>        -0.5495
     35 O5          3.0444    3.2761   -4.8795 O.3       1 <0>        -0.3500
     36 C25         2.4868    4.3569   -4.1291 C.3       1 <0>         0.0979
     37 C26         2.0308    3.8521   -2.7844 C.2       1 <0>        -0.1471
     38 C27         2.4105    4.4660   -1.6912 C.2       1 <0>        -0.1796
     39 C28         4.3908    4.1777   -8.7584 C.3       1 <0>        -0.0934
     40 H3          6.8153   -9.8124   -4.2547 H         1 <0>         0.0664
     41 H4          7.7122   -8.5533   -3.3723 H         1 <0>         0.0690
     42 H5          7.4543  -10.1494   -2.6279 H         1 <0>         0.0759
     43 H6          4.9825   -9.7000   -2.6355 H         1 <0>         0.0636
     44 H7          5.8951   -8.5426   -1.6375 H         1 <0>         0.0659
     45 H8          1.4745   -6.5452   -3.0082 H         1 <0>         0.0646
     46 H9          2.3560   -5.2690   -2.1356 H         1 <0>         0.0697
     47 H10         1.2353   -5.0242   -4.9645 H         1 <0>         0.0664
     48 H11         0.5000   -4.3276   -3.5002 H         1 <0>         0.0713
     49 H12         1.9045   -2.6755   -4.7846 H         1 <0>         0.0830
     50 H13         2.4801   -2.9350   -3.1177 H         1 <0>         0.0449
     51 H14         4.6627   -4.5729   -2.9275 H         1 <0>         0.0465
     52 H15         5.2528   -5.1896   -4.4924 H         1 <0>         0.0945
     53 H16         3.4715   -1.3160   -5.2454 H         1 <0>         0.0975
     54 H17         5.0523   -3.1605   -8.2806 H         1 <0>         0.2313
     55 H18         2.7790    0.7261   -4.0516 H         1 <0>         0.1177
     56 H19         0.4552    0.1501   -3.4771 H         1 <0>         0.1150
     57 H20        -1.2072   -0.1869   -5.2624 H         1 <0>         0.1138
     58 H21        -0.5457    0.0531   -7.6218 H         1 <0>         0.1131
     59 H22         2.2400   -0.2786   -8.9879 H         1 <0>         0.0640
     60 H23         1.0332    1.0142   -9.1891 H         1 <0>         0.0574
     61 H24         2.6918    1.4159   -8.6831 H         1 <0>         0.0779
     62 H25         3.2421    5.1303   -3.9899 H         1 <0>         0.0634
     63 H26         1.6359    4.7729   -4.6686 H         1 <0>         0.0699
     64 H27         1.3910    2.9843   -2.7219 H         1 <0>         0.1181
     65 H28         3.1143    5.2833   -1.7475 H         1 <0>         0.0973
     66 H29         2.0198    4.1548   -0.7336 H         1 <0>         0.1038
     67 H30         4.7991    4.1874   -9.7690 H         1 <0>         0.0650
     68 H31         3.3818    4.5898   -8.7702 H         1 <0>         0.0887
     69 H32         5.0220    4.7808   -8.1057 H         1 <0>         0.0841
@<TRIPOS>BOND
     1    1    2 1
     2    1   40 1
     3    1   41 1
     4    1   42 1
     5    2    3 1
     6    2   43 1
     7    2   44 1
     8    3    4 1
     9    4    5 2
    10    4    6 1
    11    6    7 1
    12    6   12 1
    13    6    8 1
    14    8    9 1
    15    8   45 1
    16    8   46 1
    17    9   10 1
    18    9   47 1
    19    9   48 1
    20   10   11 1
    21   10   49 1
    22   10   50 1
    23   11   12 1
    24   11   13 1
    25   12   51 1
    26   12   52 1
    27   13   14 1
    28   13   15 2
    29   15   16 1
    30   15   53 1
    31   16   25 1
    32   16   17 2
    33   17   18 1
    34   17   54 1
    35   18   19 1
    36   19   25 1
    37   19   20 2
    38   20   21 1
    39   21   22 2
    40   21   39 1
    41   22   23 1
    42   22   33 1
    43   23   24 1
    44   23   25 1
    45   23   26 1
    46   26   31 ar
    47   26   27 ar
    48   27   28 ar
    49   27   55 1
    50   28   29 ar
    51   28   56 1
    52   29   30 ar
    53   29   57 1
    54   30   31 ar
    55   30   58 1
    56   31   32 1
    57   32   59 1
    58   32   60 1
    59   32   61 1
    60   33   34 2
    61   33   35 1
    62   35   36 1
    63   36   37 1
    64   36   62 1
    65   36   63 1
    66   37   38 2
    67   37   64 1
    68   38   65 1
    69   38   66 1
    70   39   67 1
    71   39   68 1
    72   39   69 1
@<TRIPOS>MOLECULE
ZINC36530099
   67    70     0     0     0
SMALL
USER_CHARGES

@<TRIPOS>ATOM
      1 C1          0.8031    1.6213   -0.0550 C.3       1 <0>         0.0840
      2 N1          0.4140    0.2215   -0.2430 N.am      1 <0>        -0.5974
      3 C2          0.6452   -0.7529    0.8263 C.3       1 <0>         0.1389
      4 H1          0.2937   -1.7338    0.5062 H         1 <0>         0.1236
      5 C3         -0.1166   -0.3230    2.0816 C.3       1 <0>        -0.0133
      6 C4         -1.5905   -0.2532    1.7755 C.ar      1 <0>        -0.0701
      7 C5         -2.2197   -1.3187    1.1593 C.ar      1 <0>        -0.0899
      8 C6         -3.5717   -1.2547    0.8786 C.ar      1 <0>        -0.1025
      9 C7         -4.2947   -0.1254    1.2144 C.ar      1 <0>        -0.1154
     10 C8         -3.6657    0.9398    1.8315 C.ar      1 <0>        -0.1211
     11 C9         -2.3146    0.8741    2.1161 C.ar      1 <0>        -0.1124
     12 C10         0.1212   -1.3253    3.1815 C.ar      1 <0>        -0.0740
     13 C11        -0.2391   -2.6477    3.0012 C.ar      1 <0>        -0.1234
     14 C12        -0.0210   -3.5672    4.0101 C.ar      1 <0>        -0.1154
     15 C13         0.5578   -3.1643    5.1991 C.ar      1 <0>        -0.1210
     16 C14         0.9189   -1.8422    5.3790 C.ar      1 <0>        -0.1156
     17 C15         0.7047   -0.9236    4.3685 C.ar      1 <0>        -0.1047
     18 C16         2.1191   -0.8227    1.1323 C.2       1 <0>         0.5047
     19 O1          2.8996   -0.1270    0.5178 O.2       1 <0>        -0.5206
     20 N2          2.5699   -1.6582    2.0890 N.am      1 <0>        -0.7267
     21 C17         4.0028   -1.7261    2.3865 C.3       1 <0>         0.1458
     22 C18         4.6784   -2.7022    1.4213 C.3       1 <0>        -0.1309
     23 C19         6.1749   -2.7731    1.7321 C.3       1 <0>        -0.1164
     24 C20         6.3749   -3.2567    3.1698 C.3       1 <0>        -0.1208
     25 C21         5.6992   -2.2806    4.1349 C.3       1 <0>        -0.1146
     26 C22         4.2028   -2.2097    3.8242 C.3       1 <0>        -0.1230
     27 C23        -0.1566   -0.1699   -1.3996 C.2       1 <0>         0.5970
     28 O2         -0.5781   -1.3044   -1.5162 O.2       1 <0>        -0.5226
     29 C24        -0.2697    0.7783   -2.5242 C.ar      1 <0>        -0.2746
     30 C25         0.8103    1.5967   -2.8645 C.ar      1 <0>         0.0307
     31 C26         0.6982    2.4802   -3.9159 C.ar      1 <0>        -0.1889
     32 C27        -0.4813    2.5613   -4.6381 C.ar      1 <0>        -0.0082
     33 C28        -1.5564    1.7588   -4.3123 C.ar      1 <0>        -0.2414
     34 C29        -1.4591    0.8593   -3.2609 C.ar      1 <0>         0.3335
     35 O3         -2.5125    0.0658   -2.9433 O.3       1 <0>        -0.6368
     36 N3          1.8431    3.3470   -4.2750 N.pl3     1 <0>         0.0728
     37 O4          2.8735    3.2788   -3.6463 O.2       1 <0>        -0.2188
     38 O5          1.7477    4.1232   -5.1970 O.3       1 <0>        -0.2212
     39 H2          1.8410    1.7541   -0.3604 H         1 <0>         0.0686
     40 H3          0.1614    2.2613   -0.6606 H         1 <0>         0.0734
     41 H4          0.6964    1.8901    0.9960 H         1 <0>         0.0563
     42 H5          0.2348    0.6579    2.4017 H         1 <0>         0.0934
     43 H6         -1.6548   -2.2011    0.8969 H         1 <0>         0.1186
     44 H7         -4.0631   -2.0869    0.3965 H         1 <0>         0.1188
     45 H8         -5.3508   -0.0751    0.9945 H         1 <0>         0.1168
     46 H9         -4.2305    1.8222    2.0936 H         1 <0>         0.1170
     47 H10        -1.8239    1.7047    2.6015 H         1 <0>         0.1149
     48 H11        -0.6912   -2.9624    2.0723 H         1 <0>         0.1297
     49 H12        -0.3031   -4.6001    3.8696 H         1 <0>         0.1245
     50 H13         0.7275   -3.8826    5.9876 H         1 <0>         0.1213
     51 H14         1.3707   -1.5274    6.3081 H         1 <0>         0.1222
     52 H15         0.9902    0.1087    4.5076 H         1 <0>         0.1221
     53 H16         1.9456   -2.2147    2.5804 H         1 <0>         0.4003
     54 H17         4.4450   -0.7365    2.2712 H         1 <0>         0.0868
     55 H18         4.2362   -3.6918    1.5366 H         1 <0>         0.0611
     56 H19         4.5359   -2.3577    0.3971 H         1 <0>         0.0686
     57 H20         6.6562   -3.4685    1.0445 H         1 <0>         0.0631
     58 H21         6.6171   -1.7835    1.6168 H         1 <0>         0.0644
     59 H22         5.9326   -4.2463    3.2850 H         1 <0>         0.0611
     60 H23         7.4410   -3.3072    3.3911 H         1 <0>         0.0615
     61 H24         5.8417   -2.6252    5.1592 H         1 <0>         0.0644
     62 H25         6.1415   -1.2910    4.0196 H         1 <0>         0.0643
     63 H26         3.7214   -1.5143    4.5118 H         1 <0>         0.0684
     64 H27         3.7605   -3.1993    3.9395 H         1 <0>         0.0650
     65 H28         1.7315    1.5372   -2.3040 H         1 <0>         0.1334
     66 H29        -0.5604    3.2566   -5.4607 H         1 <0>         0.1264
     67 H30        -2.4726    1.8280   -4.8798 H         1 <0>         0.1243
@<TRIPOS>BOND
     1    1    2 1
     2    1   39 1
     3    1   40 1
     4    1   41 1
     5    2    3 1
     6    2   27 am
     7    3    4 1
     8    3    5 1
     9    3   18 1
    10    5    6 1
    11    5   12 1
    12    5   42 1
    13    6   11 ar
    14    6    7 ar
    15    7    8 ar
    16    7   43 1
    17    8    9 ar
    18    8   44 1
    19    9   10 ar
    20    9   45 1
    21   10   11 ar
    22   10   46 1
    23   11   47 1
    24   12   17 ar
    25   12   13 ar
    26   13   14 ar
    27   13   48 1
    28   14   15 ar
    29   14   49 1
    30   15   16 ar
    31   15   50 1
    32   16   17 ar
    33   16   51 1
    34   17   52 1
    35   18   19 2
    36   18   20 am
    37   20   21 1
    38   20   53 1
    39   21   26 1
    40   21   22 1
    41   21   54 1
    42   22   23 1
    43   22   55 1
    44   22   56 1
    45   23   24 1
    46   23   57 1
    47   23   58 1
    48   24   25 1
    49   24   59 1
    50   24   60 1
    51   25   26 1
    52   25   61 1
    53   25   62 1
    54   26   63 1
    55   26   64 1
    56   27   28 2
    57   27   29 1
    58   29   34 ar
    59   29   30 ar
    60   30   31 ar
    61   30   65 1
    62   31   32 ar
    63   31   36 1
    64   32   33 ar
    65   32   66 1
    66   33   34 ar
    67   33   67 1
    68   34   35 1
    69   36   37 2
    70   36   38 1
@<TRIPOS>MOLECULE
ZINC13552841
   69    73     0     0     0
SMALL
USER_CHARGES

@<TRIPOS>ATOM
      1 C1          3.2382    2.7369    1.3409 C.3       1 <0>        -0.1384
      2 C2          3.4638    1.2412    1.5708 C.3       1 <0>        -0.0249
      3 C3          4.6662    1.0431    2.4960 C.3       1 <0>        -0.1390
      4 C4          2.2180    0.6307    2.2158 C.3       1 <0>        -0.1453
      5 C5          3.7289    0.5644    0.2507 C.ar      1 <0>        -0.1127
      6 C6          2.8868   -0.4390   -0.1919 C.ar      1 <0>        -0.0812
      7 C7          3.1279   -1.0613   -1.4014 C.ar      1 <0>        -0.1498
      8 C8          4.2159   -0.6783   -2.1725 C.ar      1 <0>         0.1304
      9 C9          5.0591    0.3290   -1.7264 C.ar      1 <0>        -0.2076
     10 C10         4.8106    0.9517   -0.5185 C.ar      1 <0>        -0.0757
     11 O1          4.4554   -1.2893   -3.3625 O.3       1 <0>        -0.3093
     12 C11         5.5935   -0.8437   -4.1030 C.3       1 <0>         0.0675
     13 C12         5.6997   -1.6417   -5.4041 C.3       1 <0>        -0.1412
     14 C13         6.9182   -1.1646   -6.1969 C.3       1 <0>         0.1157
     15 N1          7.0199   -1.9287   -7.4427 N.pl3     1 <0>        -0.4638
     16 C14         7.7736   -3.0302   -7.6030 C.2       1 <0>         0.2194
     17 C15         7.6386   -3.4993   -8.9003 C.2       1 <0>        -0.2146
     18 C16         6.7049   -2.5737   -9.5745 C.ar      1 <0>        -0.0513
     19 C17         6.3497   -1.6182   -8.6100 C.ar      1 <0>         0.0785
     20 C18         5.4638   -0.6023   -8.9525 C.ar      1 <0>        -0.1176
     21 C19         4.9422   -0.5446  -10.2273 C.ar      1 <0>        -0.1205
     22 C20         5.2915   -1.4923  -11.1770 C.ar      1 <0>        -0.1383
     23 C21         6.1757   -2.5016  -10.8586 C.ar      1 <0>        -0.0865
     24 C22         8.2645   -4.6282   -9.4617 C.2       1 <0>         0.1278
     25 C23         8.2643   -5.8388   -8.7735 C.2       1 <0>        -0.2864
     26 C24         7.4603   -6.0292   -7.6137 C.2       1 <0>         0.4988
     27 O2          6.6756   -5.0315   -7.1541 O.3       1 <0>        -0.6384
     28 N2          7.4924   -7.1960   -6.9934 N.2       1 <0>        -0.6712
     29 C25         8.2531   -8.2025   -7.4173 C.2       1 <0>         0.6671
     30 O3          8.2325   -9.2502   -6.7957 O.2       1 <0>        -0.5717
     31 N3          9.0421   -8.1139   -8.5005 N.am      1 <0>        -0.5850
     32 C26         9.0908   -6.9724   -9.2212 C.2       1 <0>         0.5674
     33 O4          9.7988   -6.8823  -10.2072 O.2       1 <0>        -0.5358
     34 C27         9.8515   -9.2655   -8.9067 C.3       1 <0>         0.1860
     35 C28         9.0616  -10.1231   -9.8614 C.2       1 <0>        -0.0170
     36 C29         9.0470  -10.0009  -11.2008 C.2       1 <0>        -0.1967
     37 C30         8.1787  -11.0017  -11.6941 C.2       1 <0>        -0.2210
     38 C31         7.7145  -11.6756  -10.6265 C.2       1 <0>        -0.0446
     39 O5          8.2571  -11.1428   -9.5195 O.3       1 <0>        -0.1608
     40 H1          4.1258    3.1718    0.8814 H         1 <0>         0.0554
     41 H2          2.3817    2.8780    0.6817 H         1 <0>         0.0559
     42 H3          3.0465    3.2264    2.2957 H         1 <0>         0.0565
     43 H4          4.4744    1.5326    3.4508 H         1 <0>         0.0565
     44 H5          4.8269   -0.0225    2.6598 H         1 <0>         0.0569
     45 H6          5.5538    1.4780    2.0365 H         1 <0>         0.0556
     46 H7          1.3614    0.7718    1.5566 H         1 <0>         0.0587
     47 H8          2.3787   -0.4348    2.3796 H         1 <0>         0.0593
     48 H9          2.0262    1.1202    3.1706 H         1 <0>         0.0569
     49 H10         2.0400   -0.7367    0.4087 H         1 <0>         0.1318
     50 H11         2.4703   -1.8454   -1.7464 H         1 <0>         0.1308
     51 H12         5.9066    0.6288   -2.3248 H         1 <0>         0.1264
     52 H13         5.4642    1.7390   -0.1729 H         1 <0>         0.1213
     53 H14         5.4843    0.2158   -4.3345 H         1 <0>         0.0617
     54 H15         6.4951   -0.9949   -3.5094 H         1 <0>         0.0648
     55 H16         5.8089   -2.7012   -5.1726 H         1 <0>         0.0965
     56 H17         4.7981   -1.4905   -5.9977 H         1 <0>         0.0811
     57 H18         6.8090   -0.1051   -6.4284 H         1 <0>         0.0873
     58 H19         7.8198   -1.3158   -5.6034 H         1 <0>         0.0941
     59 H20         8.3900   -3.4800   -6.8388 H         1 <0>         0.1719
     60 H21         5.1844    0.1407   -8.2202 H         1 <0>         0.1133
     61 H22         4.2546    0.2462  -10.4886 H         1 <0>         0.1193
     62 H23         4.8753   -1.4357  -12.1720 H         1 <0>         0.1185
     63 H24         6.4459   -3.2399  -11.5991 H         1 <0>         0.1195
     64 H25         8.7450   -4.5555  -10.4262 H         1 <0>         0.1269
     65 H26        10.7595   -8.9161   -9.3983 H         1 <0>         0.1124
     66 H27        10.1172   -9.8513   -8.0267 H         1 <0>         0.1060
     67 H28         9.5934   -9.2768  -11.7870 H         1 <0>         0.1491
     68 H29         7.9346  -11.1889  -12.7293 H         1 <0>         0.1445
     69 H30         7.0254  -12.5068  -10.6549 H         1 <0>         0.1985
@<TRIPOS>BOND
     1    1    2 1
     2    1   40 1
     3    1   41 1
     4    1   42 1
     5    2    3 1
     6    2    4 1
     7    2    5 1
     8    3   43 1
     9    3   44 1
    10    3   45 1
    11    4   46 1
    12    4   47 1
    13    4   48 1
    14    5   10 ar
    15    5    6 ar
    16    6    7 ar
    17    6   49 1
    18    7    8 ar
    19    7   50 1
    20    8    9 ar
    21    8   11 1
    22    9   10 ar
    23    9   51 1
    24   10   52 1
    25   11   12 1
    26   12   13 1
    27   12   53 1
    28   12   54 1
    29   13   14 1
    30   13   55 1
    31   13   56 1
    32   14   15 1
    33   14   57 1
    34   14   58 1
    35   15   19 1
    36   15   16 1
    37   16   17 2
    38   16   59 1
    39   17   18 1
    40   17   24 1
    41   18   23 ar
    42   18   19 ar
    43   19   20 ar
    44   20   21 ar
    45   20   60 1
    46   21   22 ar
    47   21   61 1
    48   22   23 ar
    49   22   62 1
    50   23   63 1
    51   24   25 2
    52   24   64 1
    53   25   32 1
    54   25   26 1
    55   26   27 1
    56   26   28 2
    57   28   29 1
    58   29   30 2
    59   29   31 am
    60   31   32 am
    61   31   34 1
    62   32   33 2
    63   34   35 1
    64   34   65 1
    65   34   66 1
    66   35   39 1
    67   35   36 2
    68   36   37 1
    69   36   67 1
    70   37   38 2
    71   37   68 1
    72   38   39 1
    73   38   69 1
@<TRIPOS>MOLECULE
ZINC13685774
   66    70     0     0     0
SMALL
USER_CHARGES

@<TRIPOS>ATOM
      1 C1          1.1141    1.2977    1.7090 C.3       1 <0>        -0.1545
      2 C2          1.3406   -0.0932    2.3046 C.3       1 <0>        -0.1135
      3 C3          0.0853   -0.9446    2.1040 C.3       1 <0>        -0.0482
      4 H1         -0.7762   -0.4265    2.5252 H         1 <0>         0.0859
      5 C4         -0.1401   -1.1764    0.6085 C.3       1 <0>        -0.1441
      6 C5          0.2619   -2.2711    2.7970 C.ar      1 <0>        -0.1043
      7 C6          1.2996   -3.1080    2.4340 C.ar      1 <0>        -0.0795
      8 C7          1.4619   -4.3253    3.0689 C.ar      1 <0>        -0.1546
      9 C8          0.5868   -4.7082    4.0689 C.ar      1 <0>        -0.0841
     10 C9         -0.4518   -3.8749    4.4358 C.ar      1 <0>        -0.2040
     11 C10        -0.6137   -2.6504    3.8036 C.ar      1 <0>         0.1323
     12 O1         -1.6316   -1.8263    4.1666 O.3       1 <0>        -0.3083
     13 C11        -2.4943   -2.2819    5.2107 C.3       1 <0>         0.0441
     14 C12        -3.5710   -1.2285    5.4788 C.3       1 <0>         0.1116
     15 N1         -4.4555   -1.6956    6.5492 N.pl3     1 <0>        -0.4605
     16 C13        -5.6190   -2.3406    6.3516 C.2       1 <0>         0.1685
     17 C14        -6.1981   -2.6364    7.5742 C.2       1 <0>        -0.2008
     18 C15        -5.2768   -2.1092    8.6016 C.ar      1 <0>        -0.0601
     19 C16        -4.2048   -1.5386    7.8983 C.ar      1 <0>         0.0810
     20 C17        -3.1587   -0.9568    8.6066 C.ar      1 <0>        -0.1211
     21 C18        -3.1814   -0.9487    9.9849 C.ar      1 <0>        -0.1109
     22 C19        -4.2397   -1.5168   10.6773 C.ar      1 <0>        -0.1371
     23 C20        -5.2904   -2.0898    9.9923 C.ar      1 <0>        -0.0792
     24 C21        -7.4195   -3.3046    7.7938 C.2       1 <0>         0.1063
     25 C22        -8.5454   -2.9523    7.0608 C.2       1 <0>        -0.2948
     26 C23        -9.7806   -3.7598    7.1074 C.2       1 <0>         0.5425
     27 N2        -10.8322   -3.3609    6.3729 N.2       1 <0>        -0.6687
     28 C24       -10.7889   -2.2865    5.6258 C.2       1 <0>         0.6359
     29 O2        -11.8889   -1.9571    4.9207 O.3       1 <0>        -0.6494
     30 N3         -9.6955   -1.4843    5.5222 N.am      1 <0>        -0.5364
     31 C25        -8.5636   -1.7537    6.2070 C.2       1 <0>         0.5671
     32 O3         -7.5877   -1.0314    6.1170 O.2       1 <0>        -0.5192
     33 C26        -9.7468   -0.3540    4.6942 C.ar      1 <0>         0.1590
     34 C27       -10.1496    0.8694    5.2122 C.ar      1 <0>        -0.0731
     35 C28       -10.1995    1.9817    4.3950 C.ar      1 <0>        -0.1446
     36 C29        -9.8481    1.8772    3.0596 C.ar      1 <0>         0.0903
     37 C30        -9.4461    0.6577    2.5411 C.ar      1 <0>        -0.1454
     38 C31        -9.3894   -0.4555    3.3565 C.ar      1 <0>        -0.0744
     39 F1         -9.8980    2.9662    2.2617 F         1 <0>        -0.1441
     40 O4         -9.8444   -4.7647    7.7957 O.2       1 <0>        -0.5458
     41 H2          2.0084    1.9043    1.8520 H         1 <0>         0.0529
     42 H3          0.9032    1.2068    0.6435 H         1 <0>         0.0570
     43 H4          0.2692    1.7731    2.2073 H         1 <0>         0.0550
     44 H5          2.1855   -0.5686    1.8063 H         1 <0>         0.0612
     45 H6          1.5515   -0.0023    3.3702 H         1 <0>         0.0609
     46 H7         -1.0344   -1.7829    0.4656 H         1 <0>         0.0549
     47 H8         -0.2678   -0.2170    0.1073 H         1 <0>         0.0606
     48 H9          0.7215   -1.6945    0.1873 H         1 <0>         0.0543
     49 H10         1.9843   -2.8112    1.6533 H         1 <0>         0.1273
     50 H11         2.2732   -4.9784    2.7833 H         1 <0>         0.1228
     51 H12         0.7155   -5.6598    4.5632 H         1 <0>         0.1241
     52 H13        -1.1350   -4.1745    5.2168 H         1 <0>         0.1269
     53 H14        -2.9674   -3.2165    4.9093 H         1 <0>         0.0703
     54 H15        -1.9122   -2.4454    6.1177 H         1 <0>         0.0702
     55 H16        -3.0979   -0.2939    5.7803 H         1 <0>         0.1005
     56 H17        -4.1531   -1.0650    4.5719 H         1 <0>         0.1060
     57 H18        -6.0376   -2.5892    5.3875 H         1 <0>         0.1705
     58 H19        -2.3291   -0.5120    8.0772 H         1 <0>         0.1158
     59 H20        -2.3668   -0.4957   10.5306 H         1 <0>         0.1226
     60 H21        -4.2446   -1.5043   11.7573 H         1 <0>         0.1224
     61 H22        -6.1136   -2.5328   10.5332 H         1 <0>         0.1246
     62 H23        -7.4799   -4.0905    8.5321 H         1 <0>         0.1427
     63 H24       -10.4240    0.9513    6.2536 H         1 <0>         0.1304
     64 H25       -10.5131    2.9335    4.7976 H         1 <0>         0.1362
     65 H26        -9.1728    0.5780    1.4993 H         1 <0>         0.1361
     66 H27        -9.0712   -1.4054    2.9529 H         1 <0>         0.1301
@<TRIPOS>BOND
     1    1    2 1
     2    1   41 1
     3    1   42 1
     4    1   43 1
     5    2    3 1
     6    2   44 1
     7    2   45 1
     8    3    4 1
     9    3    5 1
    10    3    6 1
    11    5   46 1
    12    5   47 1
    13    5   48 1
    14    6   11 ar
    15    6    7 ar
    16    7    8 ar
    17    7   49 1
    18    8    9 ar
    19    8   50 1
    20    9   10 ar
    21    9   51 1
    22   10   11 ar
    23   10   52 1
    24   11   12 1
    25   12   13 1
    26   13   14 1
    27   13   53 1
    28   13   54 1
    29   14   15 1
    30   14   55 1
    31   14   56 1
    32   15   19 1
    33   15   16 1
    34   16   17 2
    35   16   57 1
    36   17   18 1
    37   17   24 1
    38   18   23 ar
    39   18   19 ar
    40   19   20 ar
    41   20   21 ar
    42   20   58 1
    43   21   22 ar
    44   21   59 1
    45   22   23 ar
    46   22   60 1
    47   23   61 1
    48   24   25 2
    49   24   62 1
    50   25   31 1
    51   25   26 1
    52   26   27 1
    53   26   40 2
    54   27   28 2
    55   28   29 1
    56   28   30 1
    57   30   31 am
    58   30   33 1
    59   31   32 2
    60   33   38 ar
    61   33   34 ar
    62   34   35 ar
    63   34   63 1
    64   35   36 ar
    65   35   64 1
    66   36   37 ar
    67   36   39 1
    68   37   38 ar
    69   37   65 1
    70   38   66 1
@<TRIPOS>MOLECULE
ZINC09299269
   57    59     0     0     0
SMALL
USER_CHARGES
4-(butyl-methyl-sulfamoyl)-N-(6-chloro-3-propyl-benzothiazol-2-ylidene)-benzamide
@<TRIPOS>ATOM
      1 C1          4.3714    0.1569   10.1641 C.3       1 <0>        -0.1536
      2 C2          5.7734    0.6325    9.7781 C.3       1 <0>        -0.1236
      3 C3          5.8112    0.9470    8.2813 C.3       1 <0>        -0.1461
      4 C4          7.2132    1.4226    7.8953 C.3       1 <0>         0.1104
      5 N1          7.2494    1.7238    6.4621 N.pl3     1 <0>        -0.9986
      6 C5          7.4991    0.6525    5.4945 C.3       1 <0>         0.0910
      7 S1          7.0080    3.2752    5.9357 S.o2      1 <0>         2.6880
      8 O1          7.6305    3.3734    4.6621 O.2       1 <0>        -0.9498
      9 O2          7.3499    4.1294    7.0186 O.2       1 <0>        -0.9498
     10 C6          5.2776    3.4708    5.6668 C.ar      1 <0>        -0.6543
     11 C7          4.4659    3.9114    6.6969 C.ar      1 <0>        -0.0314
     12 C8          3.1101    4.0662    6.4927 C.ar      1 <0>        -0.0836
     13 C9          2.5584    3.7778    5.2445 C.ar      1 <0>        -0.0576
     14 C10         3.3812    3.3289    4.2116 C.ar      1 <0>        -0.0798
     15 C11         4.7362    3.1827    4.4267 C.ar      1 <0>        -0.0358
     16 C12         1.1037    3.9418    5.0186 C.2       1 <0>         0.5296
     17 O3          0.3863    4.3295    5.9244 O.2       1 <0>        -0.5156
     18 N2          0.5778    3.6647    3.8214 N.2       1 <0>        -0.5934
     19 C13        -0.7272    3.8118    3.6188 C.2       1 <0>         0.4262
     20 N3         -1.4353    3.5815    2.4806 N.pl3     1 <0>        -0.4954
     21 C14        -2.8009    3.7983    2.4581 C.ar      1 <0>         0.1282
     22 C15        -3.6943    3.6138    1.3911 C.ar      1 <0>        -0.0995
     23 C16        -5.0355    3.8733    1.5439 C.ar      1 <0>        -0.0688
     24 C17        -5.5476    4.3190    2.7522 C.ar      1 <0>        -0.0395
     25 C18        -4.6893    4.5046    3.8228 C.ar      1 <0>        -0.0255
     26 C19        -3.3480    4.2446    3.6699 C.ar      1 <0>        -0.1813
     27 S2         -1.9367    4.3430    4.7422 S.3       1 <0>         0.1664
     28 Cl1        -7.2450    4.6414    2.9213 Cl        1 <0>        -0.0444
     29 C20        -0.7496    3.1091    1.2752 C.3       1 <0>         0.0945
     30 C21        -0.7288    1.5792    1.2668 C.3       1 <0>        -0.1388
     31 C22        -0.0127    1.0858    0.0080 C.3       1 <0>        -0.1486
     32 H1          3.6473    0.9399    9.9390 H         1 <0>         0.0542
     33 H2          4.1235   -0.7409    9.5978 H         1 <0>         0.0532
     34 H3          4.3444   -0.0672   11.2305 H         1 <0>         0.0561
     35 H4          6.4975   -0.1505   10.0033 H         1 <0>         0.0653
     36 H5          6.0212    1.5302   10.3444 H         1 <0>         0.0667
     37 H6          5.0871    1.7300    8.0562 H         1 <0>         0.0642
     38 H7          5.5633    0.0492    7.7150 H         1 <0>         0.0696
     39 H8          7.9373    0.6396    8.1205 H         1 <0>         0.0880
     40 H9          7.4611    2.3204    8.4616 H         1 <0>         0.0958
     41 H10         8.5712    0.5653    5.3176 H         1 <0>         0.0640
     42 H11         7.1183   -0.2895    5.8891 H         1 <0>         0.0758
     43 H12         6.9938    0.8845    4.5570 H         1 <0>         0.0719
     44 H13         4.8943    4.1344    7.6629 H         1 <0>         0.1469
     45 H14         2.4774    4.4095    7.2977 H         1 <0>         0.1456
     46 H15         2.9590    3.0994    3.2443 H         1 <0>         0.1483
     47 H16         5.3749    2.8388    3.6266 H         1 <0>         0.1454
     48 H17        -3.3229    3.2674    0.4379 H         1 <0>         0.1435
     49 H18        -5.7023    3.7276    0.7069 H         1 <0>         0.1501
     50 H19        -5.0711    4.8510    4.7718 H         1 <0>         0.1514
     51 H20         0.2730    3.4864    1.2675 H         1 <0>         0.1077
     52 H21        -1.2768    3.4701    0.3922 H         1 <0>         0.0933
     53 H22        -1.7514    1.2020    1.2746 H         1 <0>         0.0671
     54 H23        -0.2017    1.2182    2.1499 H         1 <0>         0.0732
     55 H24         0.0021   -0.0041    0.0020 H         1 <0>         0.0636
     56 H25         1.0099    1.4631    0.0003 H         1 <0>         0.0615
     57 H26        -0.5399    1.4469   -0.8751 H         1 <0>         0.0581
@<TRIPOS>BOND
     1    1    2 1
     2    1   32 1
     3    1   33 1
     4    1   34 1
     5    2    3 1
     6    2   35 1
     7    2   36 1
     8    3    4 1
     9    3   37 1
    10    3   38 1
    11    4    5 1
    12    4   39 1
    13    4   40 1
    14    5    6 1
    15    5    7 1
    16    6   41 1
    17    6   42 1
    18    6   43 1
    19    7    8 2
    20    7    9 2
    21    7   10 1
    22   10   15 ar
    23   10   11 ar
    24   11   12 ar
    25   11   44 1
    26   12   13 ar
    27   12   45 1
    28   13   14 ar
    29   13   16 1
    30   14   15 ar
    31   14   46 1
    32   15   47 1
    33   16   17 2
    34   16   18 1
    35   18   19 2
    36   19   27 1
    37   19   20 1
    38   20   21 1
    39   20   29 1
    40   21   26 ar
    41   21   22 ar
    42   22   23 ar
    43   22   48 1
    44   23   24 ar
    45   23   49 1
    46   24   25 ar
    47   24   28 1
    48   25   26 ar
    49   25   50 1
    50   26   27 1
    51   29   30 1
    52   29   51 1
    53   29   52 1
    54   30   31 1
    55   30   53 1
    56   30   54 1
    57   31   55 1
    58   31   56 1
    59   31   57 1
@<TRIPOS>MOLECULE
ZINC28062335
   59    63     0     0     0
SMALL
USER_CHARGES
4-(4-chlorophenyl)-2-[(5S)-5-(3,4-dimethoxyphenyl)-3-(4-methoxyphenyl)-4,5-dihydropyrazol-1-yl]thiazole
@<TRIPOS>ATOM
      1 C1         -1.1509    3.4738    0.0264 C.3       1 <0>         0.0210
      2 O1         -1.2037    2.0457    0.0189 O.3       1 <0>        -0.3137
      3 C2         -0.0168    1.3846    0.0097 C.ar      1 <0>         0.1477
      4 C3          1.1738    2.0996    0.0021 C.ar      1 <0>        -0.2110
      5 C4          2.3802    1.4333   -0.0129 C.ar      1 <0>        -0.0467
      6 C5          2.4041    0.0361   -0.0202 C.ar      1 <0>        -0.0721
      7 C6          1.2036   -0.6790   -0.0126 C.ar      1 <0>        -0.0375
      8 C7          0.0021   -0.0041    0.0020 C.ar      1 <0>        -0.1538
      9 C8          3.6919   -0.6812   -0.0353 C.2       1 <0>         0.1327
     10 N1          3.8295   -1.9627   -0.0431 N.2       1 <0>        -0.2121
     11 N2          5.1548   -2.3927   -0.0571 N.pl3     1 <0>        -0.4130
     12 C9          6.0372   -1.2151   -0.0590 C.3       1 <0>         0.1679
     13 H1          6.7255   -1.2322   -0.9168 H         1 <0>         0.1069
     14 C10         5.0550   -0.0270   -0.0507 C.3       1 <0>        -0.1203
     15 C11         6.9052   -1.2009    1.1728 C.ar      1 <0>        -0.1185
     16 C12         6.3833   -1.6007    2.3890 C.ar      1 <0>        -0.0886
     17 C13         7.1755   -1.5895    3.5219 C.ar      1 <0>        -0.1696
     18 C14         8.4959   -1.1774    3.4399 C.ar      1 <0>         0.1137
     19 C15         9.0214   -0.7754    2.2157 C.ar      1 <0>         0.1040
     20 C16         8.2232   -0.7936    1.0831 C.ar      1 <0>        -0.1514
     21 O2         10.3167   -0.3701    2.1301 O.3       1 <0>        -0.3030
     22 C17        10.7879    0.0286    0.8413 C.3       1 <0>         0.0210
     23 O3          9.2767   -1.1662    4.5533 O.3       1 <0>        -0.3033
     24 C18         8.6705   -1.5924    5.7751 C.3       1 <0>         0.0211
     25 C19         5.5731   -3.7124   -0.0680 C.2       1 <0>         0.4102
     26 N3          4.8505   -4.8186   -0.0672 N.2       1 <0>        -0.5420
     27 C20         5.4230   -6.0132   -0.0788 C.2       1 <0>         0.1358
     28 C21         6.7868   -6.1035   -0.0918 C.2       1 <0>        -0.2339
     29 S1          7.2341   -4.3722   -0.0947 S.3       1 <0>         0.0282
     30 C22         4.5917   -7.2415   -0.0772 C.ar      1 <0>        -0.0197
     31 C23         5.1982   -8.4964   -0.0946 C.ar      1 <0>        -0.0913
     32 C24         4.4203   -9.6361   -0.0872 C.ar      1 <0>        -0.1115
     33 C25         3.0397   -9.5347   -0.0736 C.ar      1 <0>        -0.0297
     34 C26         2.4324   -8.2906   -0.0624 C.ar      1 <0>        -0.1133
     35 C27         3.2013   -7.1448   -0.0639 C.ar      1 <0>        -0.0703
     36 Cl1         2.0667  -10.9724   -0.0710 Cl        1 <0>        -0.0692
     37 H2         -2.1737    3.8785    0.0334 H         1 <0>         0.1045
     38 H3         -0.6234    3.8259   -0.8724 H         1 <0>         0.0593
     39 H4         -0.6149    3.8162    0.9239 H         1 <0>         0.0593
     40 H5          1.1543    3.1794    0.0077 H         1 <0>         0.1353
     41 H6          3.3055    1.9902   -0.0191 H         1 <0>         0.1322
     42 H7          1.2173   -1.7589   -0.0185 H         1 <0>         0.1409
     43 H8         -0.9263   -0.5559    0.0079 H         1 <0>         0.1377
     44 H9          5.1518    0.5976   -0.9510 H         1 <0>         0.1144
     45 H10         5.1706    0.6007    0.8452 H         1 <0>         0.1146
     46 H11         5.3543   -1.9222    2.4543 H         1 <0>         0.1222
     47 H12         6.7654   -1.9024    4.4707 H         1 <0>         0.1377
     48 H13         8.6296   -0.4857    0.1311 H         1 <0>         0.1390
     49 H14        11.8432    0.3304    0.9140 H         1 <0>         0.1045
     50 H15        10.1883    0.8762    0.4778 H         1 <0>         0.0566
     51 H16        10.6948   -0.8138    0.1401 H         1 <0>         0.0569
     52 H17         9.4074   -1.5346    6.5897 H         1 <0>         0.1050
     53 H18         8.3220   -2.6303    5.6689 H         1 <0>         0.0572
     54 H19         7.8155   -0.9404    6.0071 H         1 <0>         0.0571
     55 H20         7.4195   -6.9787   -0.1028 H         1 <0>         0.1997
     56 H21         6.2751   -8.5765   -0.1098 H         1 <0>         0.1349
     57 H22         4.8893  -10.6089   -0.0966 H         1 <0>         0.1372
     58 H23         1.3549   -8.2168   -0.0521 H         1 <0>         0.1360
     59 H24         2.7265   -6.1748   -0.0552 H         1 <0>         0.1433
@<TRIPOS>BOND
     1    1    2 1
     2    1   37 1
     3    1   38 1
     4    1   39 1
     5    2    3 1
     6    3    8 ar
     7    3    4 ar
     8    4    5 ar
     9    4   40 1
    10    5    6 ar
    11    5   41 1
    12    6    7 ar
    13    6    9 1
    14    7    8 ar
    15    7   42 1
    16    8   43 1
    17    9   14 1
    18    9   10 2
    19   10   11 1
    20   11   12 1
    21   11   25 1
    22   12   13 1
    23   12   14 1
    24   12   15 1
    25   14   44 1
    26   14   45 1
    27   15   20 ar
    28   15   16 ar
    29   16   17 ar
    30   16   46 1
    31   17   18 ar
    32   17   47 1
    33   18   19 ar
    34   18   23 1
    35   19   20 ar
    36   19   21 1
    37   20   48 1
    38   21   22 1
    39   22   49 1
    40   22   50 1
    41   22   51 1
    42   23   24 1
    43   24   52 1
    44   24   53 1
    45   24   54 1
    46   25   29 1
    47   25   26 2
    48   26   27 1
    49   27   28 2
    50   27   30 1
    51   28   29 1
    52   28   55 1
    53   30   35 ar
    54   30   31 ar
    55   31   32 ar
    56   31   56 1
    57   32   33 ar
    58   32   57 1
    59   33   34 ar
    60   33   36 1
    61   34   35 ar
    62   34   58 1
    63   35   59 1
@<TRIPOS>MOLECULE
ZINC35688936
   69    72     0     0     0
SMALL
USER_CHARGES

@<TRIPOS>ATOM
      1 C1          0.0203    1.5849    0.6410 C.3       1 <0>        -0.1202
      2 C2         -0.0050    0.0814    0.5410 C.ar      1 <0>        -0.0684
      3 C3         -1.0236   -0.6331    1.1444 C.ar      1 <0>        -0.1027
      4 C4         -1.0497   -2.0111    1.0546 C.ar      1 <0>        -0.1105
      5 C5         -0.0516   -2.6790    0.3574 C.ar      1 <0>         0.0972
      6 C6          0.9699   -1.9586   -0.2475 C.ar      1 <0>        -0.0889
      7 C7          0.9872   -0.5804   -0.1588 C.ar      1 <0>        -0.1066
      8 N1         -0.0749   -4.0763    0.2648 N.am      1 <0>        -0.4929
      9 C8         -0.2806   -4.6656   -0.9361 C.2       1 <0>         0.5503
     10 O1         -0.4466   -4.0045   -1.9446 O.2       1 <0>        -0.4934
     11 C9         -0.2954   -6.1351   -0.9753 C.ar      1 <0>        -0.1945
     12 C10        -0.4986   -6.8385   -2.1610 C.ar      1 <0>        -0.0406
     13 C11        -0.5025   -8.2159   -2.1409 C.ar      1 <0>        -0.1354
     14 C12        -0.3063   -8.9056   -0.9514 C.ar      1 <0>        -0.0721
     15 C13        -0.1042   -8.2297    0.2308 C.ar      1 <0>        -0.1055
     16 C14        -0.0950   -6.8333    0.2363 C.ar      1 <0>         0.1528
     17 N2          0.1014   -6.1277    1.3780 N.2       1 <0>        -0.4932
     18 C15         0.1149   -4.8293    1.3820 C.2       1 <0>         0.3813
     19 C16         0.3463   -4.1205    2.6916 C.3       1 <0>         0.1985
     20 H1         -0.5343   -3.5305    2.9459 H         1 <0>         0.1294
     21 C17         1.5595   -3.1970    2.5643 C.3       1 <0>        -0.1744
     22 N3          0.5930   -5.1085    3.7448 N.pl3     1 <0>        -0.9682
     23 C18         1.7947   -5.9450    3.6974 C.3       1 <0>         0.1288
     24 C19         2.9547   -5.2100    4.3721 C.3       1 <0>        -0.1489
     25 C20         4.2225   -6.0610    4.2759 C.3       1 <0>        -0.0927
     26 C21         4.6318   -6.2024    2.8084 C.3       1 <0>        -0.1504
     27 C22         5.3510   -5.3850    5.0572 C.3       1 <0>        -0.1476
     28 S1         -0.4866   -5.2798    4.9888 S.o2      1 <0>         2.6850
     29 O2          0.2345   -5.8387    6.0782 O.2       1 <0>        -0.9448
     30 O3         -1.1872   -4.0477    5.0909 O.2       1 <0>        -0.9568
     31 C23        -1.6664   -6.4904    4.4917 C.ar      1 <0>        -0.6733
     32 C24        -2.8099   -6.1050    3.8173 C.ar      1 <0>        -0.0145
     33 C25        -3.7355   -7.0548    3.4273 C.ar      1 <0>        -0.1408
     34 C26        -3.5175   -8.3899    3.7115 C.ar      1 <0>        -0.0261
     35 C27        -2.3736   -8.7754    4.3851 C.ar      1 <0>        -0.1399
     36 C28        -1.4459   -7.8261    4.7713 C.ar      1 <0>        -0.0087
     37 C29        -4.5270   -9.4252    3.2872 C.3       1 <0>        -0.1255
     38 H2         -0.5346    2.0139   -0.1933 H         1 <0>         0.0758
     39 H3         -0.4386    1.8943    1.5800 H         1 <0>         0.0719
     40 H4          1.0525    1.9338    0.6087 H         1 <0>         0.0709
     41 H5         -1.7994   -0.1132    1.6869 H         1 <0>         0.1361
     42 H6         -1.8453   -2.5686    1.5264 H         1 <0>         0.1297
     43 H7          1.7475   -2.4751   -0.7904 H         1 <0>         0.1273
     44 H8          1.7788   -0.0192   -0.6330 H         1 <0>         0.1338
     45 H9         -0.6524   -6.3076   -3.0888 H         1 <0>         0.1379
     46 H10        -0.6597   -8.7643   -3.0580 H         1 <0>         0.1345
     47 H11        -0.3127   -9.9856   -0.9539 H         1 <0>         0.1348
     48 H12         0.0472   -8.7769    1.1495 H         1 <0>         0.1389
     49 H13         1.3151   -2.3649    1.9040 H         1 <0>         0.0871
     50 H14         1.8288   -2.8131    3.5483 H         1 <0>         0.0865
     51 H15         2.3991   -3.7552    2.1499 H         1 <0>         0.0727
     52 H16         1.6056   -6.8827    4.2201 H         1 <0>         0.0827
     53 H17         2.0516   -6.1535    2.6588 H         1 <0>         0.0911
     54 H18         3.1192   -4.2552    3.8728 H         1 <0>         0.0756
     55 H19         2.7132   -5.0350    5.4205 H         1 <0>         0.0737
     56 H20         4.0303   -7.0482    4.6962 H         1 <0>         0.0727
     57 H21         5.5350   -6.8087    2.7399 H         1 <0>         0.0543
     58 H22         3.8278   -6.6840    2.2518 H         1 <0>         0.0549
     59 H23         4.8240   -5.2152    2.3881 H         1 <0>         0.0526
     60 H24         5.0595   -5.2843    6.1026 H         1 <0>         0.0563
     61 H25         6.2543   -5.9912    4.9886 H         1 <0>         0.0545
     62 H26         5.5432   -4.3978    4.6369 H         1 <0>         0.0535
     63 H27        -2.9802   -5.0619    3.5953 H         1 <0>         0.1315
     64 H28        -4.6292   -6.7537    2.9010 H         1 <0>         0.1289
     65 H29        -2.2034   -9.8185    4.6074 H         1 <0>         0.1317
     66 H30        -0.5504   -8.1276    5.2943 H         1 <0>         0.1381
     67 H31        -4.2802   -9.7856    2.2886 H         1 <0>         0.0787
     68 H32        -4.5092  -10.2591    3.9890 H         1 <0>         0.0732
     69 H33        -5.5219   -8.9799    3.2773 H         1 <0>         0.0720
@<TRIPOS>BOND
     1    1    2 1
     2    1   38 1
     3    1   39 1
     4    1   40 1
     5    2    7 ar
     6    2    3 ar
     7    3    4 ar
     8    3   41 1
     9    4    5 ar
    10    4   42 1
    11    5    6 ar
    12    5    8 1
    13    6    7 ar
    14    6   43 1
    15    7   44 1
    16    8   18 1
    17    8    9 am
    18    9   10 2
    19    9   11 1
    20   11   16 ar
    21   11   12 ar
    22   12   13 ar
    23   12   45 1
    24   13   14 ar
    25   13   46 1
    26   14   15 ar
    27   14   47 1
    28   15   16 ar
    29   15   48 1
    30   16   17 1
    31   17   18 2
    32   18   19 1
    33   19   20 1
    34   19   21 1
    35   19   22 1
    36   21   49 1
    37   21   50 1
    38   21   51 1
    39   22   23 1
    40   22   28 1
    41   23   24 1
    42   23   52 1
    43   23   53 1
    44   24   25 1
    45   24   54 1
    46   24   55 1
    47   25   26 1
    48   25   27 1
    49   25   56 1
    50   26   57 1
    51   26   58 1
    52   26   59 1
    53   27   60 1
    54   27   61 1
    55   27   62 1
    56   28   29 2
    57   28   30 2
    58   28   31 1
    59   31   36 ar
    60   31   32 ar
    61   32   33 ar
    62   32   63 1
    63   33   34 ar
    64   33   64 1
    65   34   35 ar
    66   34   37 1
    67   35   36 ar
    68   35   65 1
    69   36   66 1
    70   37   67 1
    71   37   68 1
    72   37   69 1
@<TRIPOS>MOLECULE
ZINC39910528
   70    73     0     0     0
SMALL
USER_CHARGES

@<TRIPOS>ATOM
      1 C1         -0.0187    1.5258    0.0104 C.3       1 <0>        -0.1500
      2 C2          0.0021   -0.0041    0.0020 C.3       1 <0>        -0.1440
      3 C3          0.7182   -0.4975   -1.2568 C.3       1 <0>         0.1376
      4 N1          0.7381   -1.9623   -1.2648 N.am      1 <0>        -0.5902
      5 C4          1.7840   -2.8164   -0.6787 C.3       1 <0>         0.2332
      6 H1          1.8549   -2.6409    0.3948 H         1 <0>         0.1204
      7 C5          1.3573   -4.2229   -0.9436 C.2       1 <0>        -0.2489
      8 C6          1.9901   -5.5036   -0.6110 C.2       1 <0>         0.4572
      9 O1          2.9522   -5.5998    0.1302 O.2       1 <0>        -0.4341
     10 C7          1.3463   -6.6717   -1.2633 C.ar      1 <0>        -0.2022
     11 C8          1.9451   -7.9301   -1.2091 C.ar      1 <0>        -0.0407
     12 C9          1.3423   -8.9947   -1.8192 C.ar      1 <0>        -0.1018
     13 C10         0.1395   -8.8258   -2.4908 C.ar      1 <0>        -0.0598
     14 C11        -0.4667   -7.5912   -2.5525 C.ar      1 <0>        -0.0931
     15 C12         0.1272   -6.4896   -1.9364 C.ar      1 <0>         0.1322
     16 O2         -0.4903   -5.2881   -2.0015 O.3       1 <0>        -0.1781
     17 C13         0.1696   -4.1780   -1.6167 C.2       1 <0>         0.0889
     18 C14        -0.2016   -2.7646   -1.8055 C.2       1 <0>         0.5700
     19 O3         -1.2067   -2.3782   -2.3680 O.2       1 <0>        -0.4863
     20 C15        -1.7727   -7.4297   -3.2869 C.3       1 <0>        -0.1145
     21 C16         1.9861  -10.3560   -1.7626 C.3       1 <0>        -0.1154
     22 C17         3.1105   -2.5409   -1.3386 C.ar      1 <0>        -0.0991
     23 C18         3.1703   -2.3230   -2.7026 C.ar      1 <0>        -0.0939
     24 C19         4.3846   -2.0699   -3.3127 C.ar      1 <0>        -0.1730
     25 C20         5.5455   -2.0336   -2.5569 C.ar      1 <0>         0.1151
     26 C21         5.4853   -2.2525   -1.1840 C.ar      1 <0>         0.1064
     27 C22         4.2642   -2.5009   -0.5780 C.ar      1 <0>        -0.1434
     28 O4          6.6218   -2.2179   -0.4379 O.3       1 <0>        -0.3020
     29 C23         6.4842   -2.4515    0.9651 C.3       1 <0>         0.0516
     30 C24         7.8588   -2.3736    1.6324 C.3       1 <0>        -0.1515
     31 O5          6.7410   -1.7852   -3.1556 O.3       1 <0>        -0.3013
     32 C25         6.7269   -1.5705   -4.5683 C.3       1 <0>         0.0557
     33 C26         8.1523   -1.3085   -5.0586 C.3       1 <0>        -0.1139
     34 C27         8.1372   -1.0786   -6.5711 C.3       1 <0>        -0.0935
     35 C28         7.3597    0.2012   -6.8847 C.3       1 <0>        -0.1538
     36 C29         9.5733   -0.9406   -7.0804 C.3       1 <0>        -0.1477
     37 H2          1.0039    1.9031    0.0027 H         1 <0>         0.0580
     38 H3         -0.5459    1.8868   -0.8726 H         1 <0>         0.0589
     39 H4         -0.5289    1.8773    0.9072 H         1 <0>         0.0616
     40 H5          0.5293   -0.3651    0.8851 H         1 <0>         0.0678
     41 H6         -1.0205   -0.3814    0.0098 H         1 <0>         0.0698
     42 H7          0.1910   -0.1364   -2.1398 H         1 <0>         0.0931
     43 H8          1.7408   -0.1202   -1.2645 H         1 <0>         0.0927
     44 H9          2.8815   -8.0629   -0.6875 H         1 <0>         0.1440
     45 H10        -0.3269   -9.6735   -2.9707 H         1 <0>         0.1429
     46 H11        -2.6003   -7.5992   -2.5980 H         1 <0>         0.0784
     47 H12        -1.8389   -6.4203   -3.6929 H         1 <0>         0.0756
     48 H13        -1.8237   -8.1528   -4.1009 H         1 <0>         0.0756
     49 H14         1.6288  -10.8906   -0.8825 H         1 <0>         0.0763
     50 H15         1.7263  -10.9183   -2.6595 H         1 <0>         0.0720
     51 H16         3.0687  -10.2438   -1.7050 H         1 <0>         0.0716
     52 H17         2.2662   -2.3510   -3.2928 H         1 <0>         0.1214
     53 H18         4.4287   -1.9007   -4.3784 H         1 <0>         0.1369
     54 H19         4.2142   -2.6674    0.4880 H         1 <0>         0.1398
     55 H20         5.8275   -1.6960    1.3966 H         1 <0>         0.0611
     56 H21         6.0565   -3.4407    1.1285 H         1 <0>         0.0648
     57 H22         8.5155   -3.1291    1.2009 H         1 <0>         0.0668
     58 H23         8.2864   -1.3844    1.4690 H         1 <0>         0.0663
     59 H24         7.7538   -2.5518    2.7026 H         1 <0>         0.0790
     60 H25         6.3280   -2.4543   -5.0662 H         1 <0>         0.0609
     61 H26         6.0994   -0.7095   -4.7987 H         1 <0>         0.0646
     62 H27         8.5511   -0.4247   -4.5607 H         1 <0>         0.0753
     63 H28         8.7798   -2.1695   -4.8282 H         1 <0>         0.0748
     64 H29         7.6572   -1.9249   -7.0625 H         1 <0>         0.0723
     65 H30         7.8396    1.0476   -6.3934 H         1 <0>         0.0578
     66 H31         7.3489    0.3650   -7.9623 H         1 <0>         0.0578
     67 H32         6.3365    0.1029   -6.5219 H         1 <0>         0.0545
     68 H33        10.1273   -1.8524   -6.8570 H         1 <0>         0.0566
     69 H34         9.5626   -0.7768   -8.1580 H         1 <0>         0.0580
     70 H35        10.0533   -0.0943   -6.5890 H         1 <0>         0.0569
@<TRIPOS>BOND
     1    1    2 1
     2    1   37 1
     3    1   38 1
     4    1   39 1
     5    2    3 1
     6    2   40 1
     7    2   41 1
     8    3    4 1
     9    3   42 1
    10    3   43 1
    11    4   18 am
    12    4    5 1
    13    5    6 1
    14    5    7 1
    15    5   22 1
    16    7   17 2
    17    7    8 1
    18    8    9 2
    19    8   10 1
    20   10   15 ar
    21   10   11 ar
    22   11   12 ar
    23   11   44 1
    24   12   13 ar
    25   12   21 1
    26   13   14 ar
    27   13   45 1
    28   14   15 ar
    29   14   20 1
    30   15   16 1
    31   16   17 1
    32   17   18 1
    33   18   19 2
    34   20   46 1
    35   20   47 1
    36   20   48 1
    37   21   49 1
    38   21   50 1
    39   21   51 1
    40   22   27 ar
    41   22   23 ar
    42   23   24 ar
    43   23   52 1
    44   24   25 ar
    45   24   53 1
    46   25   26 ar
    47   25   31 1
    48   26   27 ar
    49   26   28 1
    50   27   54 1
    51   28   29 1
    52   29   30 1
    53   29   55 1
    54   29   56 1
    55   30   57 1
    56   30   58 1
    57   30   59 1
    58   31   32 1
    59   32   33 1
    60   32   60 1
    61   32   61 1
    62   33   34 1
    63   33   62 1
    64   33   63 1
    65   34   35 1
    66   34   36 1
    67   34   64 1
    68   35   65 1
    69   35   66 1
    70   35   67 1
    71   36   68 1
    72   36   69 1
    73   36   70 1
@<TRIPOS>MOLECULE
ZINC40902767
   70    73     0     0     0
SMALL
USER_CHARGES

@<TRIPOS>ATOM
      1 C1         -1.5040   -4.2051    2.3946 C.3       1 <0>        -0.1479
      2 C2         -1.8533   -3.0763    1.4226 C.3       1 <0>        -0.1170
      3 C3         -1.9369   -1.7532    2.1864 C.3       1 <0>        -0.1576
      4 C4         -0.7703   -2.9765    0.3465 C.3       1 <0>         0.1075
      5 N1         -1.1826   -2.0086   -0.6730 N.am      1 <0>        -0.6099
      6 C5         -0.9939   -0.5746   -0.4406 C.3       1 <0>         0.1067
      7 C6          0.3546   -0.1377   -1.0163 C.3       1 <0>        -0.1108
      8 C7          0.3470   -0.3287   -2.5343 C.3       1 <0>        -0.1390
      9 C8          0.5950    1.3375   -0.6892 C.3       1 <0>        -0.1459
     10 C9         -1.7356   -2.4376   -1.8249 C.2       1 <0>         0.5202
     11 O1         -2.1907   -1.6370   -2.6140 O.2       1 <0>        -0.5308
     12 C10        -1.7883   -3.9120   -2.1322 C.3       1 <0>        -0.1024
     13 C11        -2.9887   -4.5388   -1.4193 C.3       1 <0>        -0.1321
     14 C12        -3.0192   -6.0433   -1.7058 C.3       1 <0>         0.1481
     15 N2         -3.0070   -6.2480   -3.1607 N.pl3     1 <0>        -0.6760
     16 C13        -1.9462   -5.6130   -3.9546 C.3       1 <0>         0.1452
     17 C14        -1.9278   -4.1132   -3.6428 C.3       1 <0>        -0.1161
     18 C15        -3.9844   -7.0313   -3.7769 C.ar      1 <0>         0.1694
     19 C16        -5.1594   -6.4445   -4.2315 C.ar      1 <0>        -0.1001
     20 C17        -6.1261   -7.2159   -4.8404 C.ar      1 <0>        -0.0780
     21 C18        -5.9254   -8.5860   -5.0011 C.ar      1 <0>        -0.0155
     22 C19        -4.7463   -9.1744   -4.5454 C.ar      1 <0>        -0.0967
     23 C20        -3.7786   -8.3985   -3.9407 C.ar      1 <0>         0.0881
     24 F1         -2.6336   -8.9664   -3.5028 F         1 <0>        -0.1269
     25 C21        -6.9651   -9.4171   -5.6557 C.2       1 <0>         0.3023
     26 N3         -6.8909  -10.7415   -5.8624 N.2       1 <0>        -0.5307
     27 C22        -7.9788  -11.1619   -6.4650 C.2       1 <0>         0.3464
     28 O2         -8.7864  -10.1050   -6.6616 O.3       1 <0>        -0.0949
     29 N4         -8.1101   -8.9793   -6.1222 N.2       1 <0>        -0.3275
     30 C23        -8.2660  -12.5565   -6.8601 C.ar      1 <0>        -0.0653
     31 C24        -7.3393  -13.5657   -6.5916 C.ar      1 <0>        -0.0221
     32 C25        -7.6125  -14.8653   -6.9619 C.ar      1 <0>        -0.1602
     33 C26        -8.8047  -15.1709   -7.5998 C.ar      1 <0>         0.1394
     34 C27        -9.7281  -14.1726   -7.8693 C.ar      1 <0>        -0.1587
     35 C28        -9.4675  -12.8706   -7.4981 C.ar      1 <0>        -0.0383
     36 F2         -9.0675  -16.4460   -7.9606 F         1 <0>        -0.1278
     37 H1         -2.2756   -4.2762    3.1612 H         1 <0>         0.0596
     38 H2         -1.4445   -5.1477    1.8505 H         1 <0>         0.0575
     39 H3         -0.5431   -3.9955    2.8646 H         1 <0>         0.0577
     40 H4         -2.8142   -3.2859    0.9526 H         1 <0>         0.0771
     41 H5         -0.9760   -1.5437    2.6564 H         1 <0>         0.0564
     42 H6         -2.1858   -0.9491    1.4939 H         1 <0>         0.0640
     43 H7         -2.7085   -1.8244    2.9530 H         1 <0>         0.0563
     44 H8          0.1646   -2.6490    0.8013 H         1 <0>         0.0772
     45 H9         -0.6268   -3.9528   -0.1163 H         1 <0>         0.0852
     46 H10        -1.7946   -0.0189   -0.9287 H         1 <0>         0.0825
     47 H11        -1.0136   -0.3745    0.6307 H         1 <0>         0.0879
     48 H12         1.1495   -0.7412   -0.5782 H         1 <0>         0.0680
     49 H13        -0.4507    0.2715   -2.9721 H         1 <0>         0.0597
     50 H14         1.3061   -0.0134   -2.9450 H         1 <0>         0.0479
     51 H15         0.1801   -1.3804   -2.7673 H         1 <0>         0.0494
     52 H16         0.6004    1.4736    0.3923 H         1 <0>         0.0548
     53 H17         1.5557    1.6487   -1.0994 H         1 <0>         0.0579
     54 H18        -0.1999    1.9411   -1.1274 H         1 <0>         0.0570
     55 H19        -0.8711   -4.3882   -1.7856 H         1 <0>         0.0918
     56 H20        -2.9004   -4.3747   -0.3453 H         1 <0>         0.0813
     57 H21        -3.9081   -4.0804   -1.7835 H         1 <0>         0.0728
     58 H22        -2.1434   -6.5175   -1.2628 H         1 <0>         0.0577
     59 H23        -3.9253   -6.4775   -1.2833 H         1 <0>         0.0743
     60 H24        -0.9830   -6.0520   -3.6949 H         1 <0>         0.0565
     61 H25        -2.1444   -5.7632   -5.0158 H         1 <0>         0.0745
     62 H26        -2.8572   -3.6589   -3.9861 H         1 <0>         0.0778
     63 H27        -1.0844   -3.6463   -4.1515 H         1 <0>         0.0732
     64 H28        -5.3154   -5.3830   -4.1072 H         1 <0>         0.1432
     65 H29        -7.0391   -6.7589   -5.1926 H         1 <0>         0.1405
     66 H30        -4.5891  -10.2358   -4.6686 H         1 <0>         0.1517
     67 H31        -6.4100  -13.3287   -6.0950 H         1 <0>         0.1536
     68 H32        -6.8962  -15.6467   -6.7550 H         1 <0>         0.1507
     69 H33       -10.6553  -14.4160   -8.3668 H         1 <0>         0.1502
     70 H34       -10.1895  -12.0944   -7.7044 H         1 <0>         0.1486
@<TRIPOS>BOND
     1    1    2 1
     2    1   37 1
     3    1   38 1
     4    1   39 1
     5    2    3 1
     6    2    4 1
     7    2   40 1
     8    3   41 1
     9    3   42 1
    10    3   43 1
    11    4    5 1
    12    4   44 1
    13    4   45 1
    14    5    6 1
    15    5   10 am
    16    6    7 1
    17    6   46 1
    18    6   47 1
    19    7    8 1
    20    7    9 1
    21    7   48 1
    22    8   49 1
    23    8   50 1
    24    8   51 1
    25    9   52 1
    26    9   53 1
    27    9   54 1
    28   10   11 2
    29   10   12 1
    30   12   17 1
    31   12   13 1
    32   12   55 1
    33   13   14 1
    34   13   56 1
    35   13   57 1
    36   14   15 1
    37   14   58 1
    38   14   59 1
    39   15   16 1
    40   15   18 1
    41   16   17 1
    42   16   60 1
    43   16   61 1
    44   17   62 1
    45   17   63 1
    46   18   23 ar
    47   18   19 ar
    48   19   20 ar
    49   19   64 1
    50   20   21 ar
    51   20   65 1
    52   21   22 ar
    53   21   25 1
    54   22   23 ar
    55   22   66 1
    56   23   24 1
    57   25   29 2
    58   25   26 1
    59   26   27 2
    60   27   28 1
    61   27   30 1
    62   28   29 1
    63   30   35 ar
    64   30   31 ar
    65   31   32 ar
    66   31   67 1
    67   32   33 ar
    68   32   68 1
    69   33   34 ar
    70   33   36 1
    71   34   35 ar
    72   34   69 1
    73   35   70 1
@<TRIPOS>MOLECULE
ZINC09391956
   56    58     0     0     0
SMALL
USER_CHARGES
(2,3,4-trifluorophenyl)carbamoylmethylcarbamoylmethyl 1-(4-fluorobenzoyl)piperidine-4-carboxylate
@<TRIPOS>ATOM
      1 C1          0.3079    1.1913    0.8548 C.ar      1 <0>        -0.0373
      2 C2          0.3449   -0.1863    0.8260 C.ar      1 <0>        -0.1560
      3 C3          1.2545   -0.8409    0.0096 C.ar      1 <0>         0.1228
      4 C4          2.1315   -0.1146   -0.7816 C.ar      1 <0>        -0.1577
      5 C5          2.1030    1.2633   -0.7605 C.ar      1 <0>        -0.0651
      6 C6          1.1886    1.9277    0.0597 C.ar      1 <0>        -0.1419
      7 C7          1.1531    3.4043    0.0860 C.2       1 <0>         0.5653
      8 O1          0.0882    3.9878    0.0290 O.2       1 <0>        -0.5263
      9 N1          2.3014    4.1045    0.1734 N.am      1 <0>        -0.6091
     10 C8          3.6002    3.4177    0.1565 C.3       1 <0>         0.0927
     11 C9          4.4073    3.8495    1.3794 C.3       1 <0>        -0.1295
     12 C10         4.5038    5.3765    1.4110 C.3       1 <0>        -0.0767
     13 C11         3.0999    5.9759    1.5204 C.3       1 <0>        -0.1203
     14 C12         2.2781    5.5687    0.2934 C.3       1 <0>         0.1131
     15 C13         5.3259    5.8032    2.5998 C.2       1 <0>         0.4682
     16 O2          4.8391    6.5136    3.4473 O.2       1 <0>        -0.4992
     17 O3          6.5989    5.3941    2.7170 O.3       1 <0>        -0.3307
     18 C14         7.3307    5.8437    3.8878 C.3       1 <0>         0.0492
     19 C15         8.7313    5.2891    3.8484 C.2       1 <0>         0.5223
     20 O4          9.0786    4.5842    2.9246 O.2       1 <0>        -0.5108
     21 N2          9.5980    5.5763    4.8398 N.am      1 <0>        -0.7183
     22 C16        10.9596    5.0371    4.8015 C.3       1 <0>         0.1056
     23 C17        11.7191    5.5038    6.0166 C.2       1 <0>         0.5170
     24 O5         11.1763    6.2167    6.8342 O.2       1 <0>        -0.5072
     25 N3         13.0013    5.1290    6.1949 N.am      1 <0>        -0.6594
     26 C18        13.6720    5.4667    7.3782 C.ar      1 <0>         0.1368
     27 C19        12.9514    5.7220    8.5369 C.ar      1 <0>        -0.0865
     28 C20        13.6134    6.0507    9.7042 C.ar      1 <0>        -0.1079
     29 C21        14.9951    6.1354    9.7186 C.ar      1 <0>         0.0834
     30 C22        15.7188    5.8864    8.5626 C.ar      1 <0>         0.0583
     31 C23        15.0592    5.5521    7.3917 C.ar      1 <0>         0.0654
     32 F1         15.7630    5.3087    6.2645 F         1 <0>        -0.1153
     33 F2         17.0671    5.9705    8.5782 F         1 <0>        -0.1106
     34 F3         15.6391    6.4616   10.8605 F         1 <0>        -0.1162
     35 F4          1.2867   -2.1913   -0.0149 F         1 <0>        -0.1325
     36 H1         -0.4040    1.7002    1.4878 H         1 <0>         0.1423
     37 H2         -0.3355   -0.7568    1.4408 H         1 <0>         0.1448
     38 H3          2.8385   -0.6295   -1.4152 H         1 <0>         0.1449
     39 H4          2.7863    1.8280   -1.3773 H         1 <0>         0.1436
     40 H5          3.4437    2.3394    0.1858 H         1 <0>         0.1052
     41 H6          4.1435    3.6856   -0.7497 H         1 <0>         0.0814
     42 H7          5.4088    3.4227    1.3251 H         1 <0>         0.0972
     43 H8          3.9100    3.4977    2.2833 H         1 <0>         0.0761
     44 H9          4.9790    5.7294    0.4957 H         1 <0>         0.1167
     45 H10         3.1709    7.0627    1.5664 H         1 <0>         0.0902
     46 H11         2.6146    5.6045    2.4230 H         1 <0>         0.0797
     47 H12         2.7114    6.0156   -0.6014 H         1 <0>         0.0761
     48 H13         1.2496    5.9091    0.4131 H         1 <0>         0.1029
     49 H14         7.3713    6.9330    3.8946 H         1 <0>         0.1066
     50 H15         6.8263    5.4933    4.7883 H         1 <0>         0.1064
     51 H16         9.3202    6.1401    5.5786 H         1 <0>         0.4162
     52 H17        10.9190    3.9479    4.7947 H         1 <0>         0.1130
     53 H18        11.4640    5.3875    3.9011 H         1 <0>         0.1113
     54 H19        13.4600    4.6256    5.5042 H         1 <0>         0.4238
     55 H20        11.8732    5.6604    8.5267 H         1 <0>         0.1745
     56 H21        13.0519    6.2454   10.6059 H         1 <0>         0.1615
@<TRIPOS>BOND
     1    1    6 ar
     2    1    2 ar
     3    1   36 1
     4    2    3 ar
     5    2   37 1
     6    3    4 ar
     7    3   35 1
     8    4    5 ar
     9    4   38 1
    10    5    6 ar
    11    5   39 1
    12    6    7 1
    13    7    8 2
    14    7    9 am
    15    9   14 1
    16    9   10 1
    17   10   11 1
    18   10   40 1
    19   10   41 1
    20   11   12 1
    21   11   42 1
    22   11   43 1
    23   12   13 1
    24   12   15 1
    25   12   44 1
    26   13   14 1
    27   13   45 1
    28   13   46 1
    29   14   47 1
    30   14   48 1
    31   15   16 2
    32   15   17 1
    33   17   18 1
    34   18   19 1
    35   18   49 1
    36   18   50 1
    37   19   20 2
    38   19   21 am
    39   21   22 1
    40   21   51 1
    41   22   23 1
    42   22   52 1
    43   22   53 1
    44   23   24 2
    45   23   25 am
    46   25   26 1
    47   25   54 1
    48   26   31 ar
    49   26   27 ar
    50   27   28 ar
    51   27   55 1
    52   28   29 ar
    53   28   56 1
    54   29   30 ar
    55   29   34 1
    56   30   31 ar
    57   30   33 1
    58   31   32 1
@<TRIPOS>MOLECULE
ZINC14322861
   52    54     0     0     0
SMALL
USER_CHARGES
(2R)-1-(4-bromophenyl)sulfonyl-N'-(4-methoxybenzoyl)piperidine-2-carbohydrazide
@<TRIPOS>ATOM
      1 C1         -6.7839    6.9419   -8.5293 C.3       1 <0>         0.0231
      2 O1         -5.4132    6.8565   -8.9240 O.3       1 <0>        -0.3110
      3 C2         -4.5419    6.3447   -8.0181 C.ar      1 <0>         0.1603
      4 C3         -3.1939    6.2340   -8.3387 C.ar      1 <0>        -0.1592
      5 C4         -2.3068    5.7148   -7.4224 C.ar      1 <0>        -0.0121
      6 C5         -2.7632    5.2995   -6.1687 C.ar      1 <0>        -0.1704
      7 C6         -4.1198    5.4079   -5.8521 C.ar      1 <0>        -0.0412
      8 C7         -4.9999    5.9322   -6.7723 C.ar      1 <0>        -0.2162
      9 C8         -1.8157    4.7419   -5.1838 C.2       1 <0>         0.5674
     10 O2         -0.6364    4.6436   -5.4628 O.2       1 <0>        -0.5386
     11 N1         -2.2578    4.3418   -3.9751 N.am      1 <0>        -0.5087
     12 N2         -1.3585    3.8127   -3.0402 N.am      1 <0>        -0.4910
     13 C9         -1.8006    3.4126   -1.8315 C.2       1 <0>         0.5145
     14 O3         -2.9770    3.5106   -1.5532 O.2       1 <0>        -0.5366
     15 C10        -0.8333    2.8433   -0.8259 C.3       1 <0>         0.1520
     16 H1          0.1864    2.9614   -1.1924 H         1 <0>         0.1040
     17 C11        -0.9902    3.5768    0.5098 C.3       1 <0>        -0.1211
     18 C12        -0.1070    2.9044    1.5633 C.3       1 <0>        -0.1162
     19 C13        -0.5495    1.4516    1.7551 C.3       1 <0>        -0.1394
     20 C14        -0.3909    0.6953    0.4324 C.3       1 <0>         0.1185
     21 N3         -1.1203    1.4173   -0.6190 N.pl3     1 <0>        -0.9849
     22 S1         -2.2448    0.6388   -1.5526 S.o2      1 <0>         2.6860
     23 O4         -2.3772    1.3979   -2.7465 O.2       1 <0>        -0.9383
     24 O5         -1.8852   -0.7359   -1.5598 O.2       1 <0>        -0.9470
     25 C15        -3.7886    0.7510   -0.7107 C.ar      1 <0>        -0.6614
     26 C16        -4.0220   -0.0230    0.4107 C.ar      1 <0>        -0.0155
     27 C17        -5.2310    0.0683    1.0743 C.ar      1 <0>        -0.1182
     28 C18        -6.2115    0.9264    0.6099 C.ar      1 <0>        -0.0358
     29 C19        -5.9795    1.6968   -0.5153 C.ar      1 <0>        -0.1164
     30 C20        -4.7682    1.6088   -1.1751 C.ar      1 <0>         0.0214
     31 Br1        -7.8683    1.0468    1.5135 Br        1 <0>        -0.0362
     32 H2         -6.8694    7.5785   -7.6487 H         1 <0>         0.0597
     33 H3         -7.3706    7.3672   -9.3435 H         1 <0>         0.1046
     34 H4         -7.1572    5.9450   -8.2947 H         1 <0>         0.0598
     35 H5         -2.8420    6.5552   -9.3079 H         1 <0>         0.1420
     36 H6         -1.2596    5.6291   -7.6723 H         1 <0>         0.1468
     37 H7         -4.4771    5.0842   -4.8857 H         1 <0>         0.1296
     38 H8         -6.0481    6.0192   -6.5272 H         1 <0>         0.1375
     39 H9         -3.1987    4.4203   -3.7525 H         1 <0>         0.4301
     40 H10        -0.4177    3.7342   -3.2628 H         1 <0>         0.4319
     41 H11        -0.6873    4.6171    0.3914 H         1 <0>         0.0825
     42 H12        -2.0321    3.5351    0.8275 H         1 <0>         0.0849
     43 H13         0.9316    2.9249    1.2332 H         1 <0>         0.0701
     44 H14        -0.1980    3.4394    2.5086 H         1 <0>         0.0744
     45 H15        -1.5947    1.4294    2.0638 H         1 <0>         0.0704
     46 H16         0.0664    0.9793    2.5204 H         1 <0>         0.0831
     47 H17        -0.7986   -0.3103    0.5353 H         1 <0>         0.0951
     48 H18         0.6653    0.6361    0.1697 H         1 <0>         0.0845
     49 H19        -3.2579   -0.6960    0.7708 H         1 <0>         0.1404
     50 H20        -5.4119   -0.5337    1.9525 H         1 <0>         0.1422
     51 H21        -6.7449    2.3667   -0.8784 H         1 <0>         0.1412
     52 H22        -4.5871    2.2100   -2.0538 H         1 <0>         0.1575
@<TRIPOS>BOND
     1    1    2 1
     2    1   32 1
     3    1   33 1
     4    1   34 1
     5    2    3 1
     6    3    8 ar
     7    3    4 ar
     8    4    5 ar
     9    4   35 1
    10    5    6 ar
    11    5   36 1
    12    6    7 ar
    13    6    9 1
    14    7    8 ar
    15    7   37 1
    16    8   38 1
    17    9   10 2
    18    9   11 am
    19   11   12 1
    20   11   39 1
    21   12   13 am
    22   12   40 1
    23   13   14 2
    24   13   15 1
    25   15   16 1
    26   15   21 1
    27   15   17 1
    28   17   18 1
    29   17   41 1
    30   17   42 1
    31   18   19 1
    32   18   43 1
    33   18   44 1
    34   19   20 1
    35   19   45 1
    36   19   46 1
    37   20   21 1
    38   20   47 1
    39   20   48 1
    40   21   22 1
    41   22   23 2
    42   22   24 2
    43   22   25 1
    44   25   30 ar
    45   25   26 ar
    46   26   27 ar
    47   26   49 1
    48   27   28 ar
    49   27   50 1
    50   28   29 ar
    51   28   31 1
    52   29   30 ar
    53   29   51 1
    54   30   52 1
@<TRIPOS>MOLECULE
ZINC24831822
   65    69     0     0     0
SMALL
USER_CHARGES
2-[3-[(2R)-2-(2,3-dihydro-1,4-benzodioxin-6-yl)pyrrolidin-1-yl]-3-oxo-propyl]-1-propyl-benzimidazole-5-sulfonamide
@<TRIPOS>ATOM
      1 C1          2.7126    5.0628   -4.6937 C.3       1 <0>        -0.1527
      2 C2          1.3627    4.5373   -5.1863 C.3       1 <0>        -0.1429
      3 C3          0.4500    5.7168   -5.5276 C.3       1 <0>         0.1007
      4 N1         -0.8426    5.2136   -5.9992 N.pl3     1 <0>        -0.4837
      5 C4         -1.1807    4.9247   -7.3061 C.ar      1 <0>         0.0939
      6 C5         -0.5054    4.9932   -8.5172 C.ar      1 <0>        -0.1205
      7 C6         -1.1491    4.6262   -9.6796 C.ar      1 <0>        -0.0271
      8 C7         -2.4657    4.1885   -9.6464 C.ar      1 <0>        -0.6701
      9 C8         -3.1455    4.1138   -8.4639 C.ar      1 <0>         0.0611
     10 C9         -2.5134    4.4810   -7.2729 C.ar      1 <0>         0.0256
     11 N2         -2.9098    4.5166   -5.9747 N.2       1 <0>        -0.4749
     12 C10        -1.9314    4.9422   -5.2301 C.2       1 <0>         0.2905
     13 C11        -1.9968    5.1155   -3.7345 C.3       1 <0>        -0.0299
     14 C12        -1.5628    3.8172   -3.0512 C.3       1 <0>        -0.1349
     15 C13        -1.6283    3.9905   -1.5557 C.2       1 <0>         0.5328
     16 O1         -1.9868    5.0482   -1.0829 O.2       1 <0>        -0.5235
     17 N3         -1.2884    2.9700   -0.7435 N.am      1 <0>        -0.6161
     18 C14        -0.8378    1.6365   -1.1818 C.3       1 <0>         0.0904
     19 C15        -0.0127    1.0858    0.0080 C.3       1 <0>        -0.1334
     20 C16        -0.8161    1.6244    1.2212 C.3       1 <0>        -0.1182
     21 C17        -1.3066    3.0020    0.7262 C.3       1 <0>         0.1866
     22 H1         -0.6686    3.8286    1.0722 H         1 <0>         0.0887
     23 C18        -2.7093    3.2534    1.2161 C.ar      1 <0>        -0.0851
     24 C19        -3.7798    2.6485    0.5841 C.ar      1 <0>        -0.0988
     25 C20        -5.0674    2.8739    1.0326 C.ar      1 <0>        -0.1116
     26 C21        -5.2898    3.7160    2.1121 C.ar      1 <0>         0.0514
     27 C22        -4.2139    4.3262    2.7458 C.ar      1 <0>         0.0534
     28 C23        -2.9239    4.0928    2.2928 C.ar      1 <0>        -0.0969
     29 O2         -4.4091    5.1493    3.8120 O.3       1 <0>        -0.3080
     30 C24        -5.7359    5.6525    4.0023 C.3       1 <0>         0.0174
     31 C25        -6.7197    4.4846    3.8493 C.3       1 <0>         0.0188
     32 O3         -6.5643    3.9370    2.5355 O.3       1 <0>        -0.3065
     33 S1         -3.2683    3.7240  -11.1446 S.o2      1 <0>         2.6406
     34 O4         -2.2428    3.3641  -12.0600 O.2       1 <0>        -0.9851
     35 O5         -4.3155    2.8332  -10.7850 O.2       1 <0>        -0.9508
     36 N4         -3.9916    5.0832  -11.7544 N.pl3     1 <0>        -1.1623
     37 H2          3.3688    4.2147   -4.4483 H         1 <0>         0.0656
     38 H3          2.5603    5.6803   -3.7962 H         1 <0>         0.0611
     39 H4          3.1792    5.6712   -5.4825 H         1 <0>         0.0607
     40 H5          1.5150    3.9198   -6.0838 H         1 <0>         0.0723
     41 H6          0.8961    3.9289   -4.3976 H         1 <0>         0.0705
     42 H7          0.2978    6.3343   -4.6301 H         1 <0>         0.1008
     43 H8          0.9165    6.3252   -6.3164 H         1 <0>         0.0966
     44 H9          0.5194    5.3328   -8.5485 H         1 <0>         0.1323
     45 H10        -0.6253    4.6793  -10.6226 H         1 <0>         0.1479
     46 H11        -4.1696    3.7711   -8.4494 H         1 <0>         0.1506
     47 H12        -1.3255    5.9321   -3.4303 H         1 <0>         0.0957
     48 H13        -3.0278    5.3588   -3.4383 H         1 <0>         0.1144
     49 H14        -2.2341    3.0006   -3.3555 H         1 <0>         0.1054
     50 H15        -0.5317    3.5739   -3.3473 H         1 <0>         0.0949
     51 H16        -1.7132    1.0061   -1.3970 H         1 <0>         0.0721
     52 H17        -0.2258    1.7365   -2.0903 H         1 <0>         0.0769
     53 H18         0.0141   -0.0127   -0.0417 H         1 <0>         0.0883
     54 H19         1.0129    1.4803   -0.0432 H         1 <0>         0.0789
     55 H20        -1.6440    0.9363    1.4473 H         1 <0>         0.0850
     56 H21        -0.1530    1.7001    2.0956 H         1 <0>         0.0892
     57 H22        -3.6092    1.9955   -0.2591 H         1 <0>         0.1253
     58 H23        -5.9017    2.3974    0.5393 H         1 <0>         0.1340
     59 H24        -2.0862    4.5678    2.7818 H         1 <0>         0.1332
     60 H25        -5.8217    6.0891    5.0083 H         1 <0>         0.1244
     61 H26        -5.9468    6.4250    3.2482 H         1 <0>         0.0787
     62 H27        -6.4992    3.7179    4.6066 H         1 <0>         0.0789
     63 H28        -7.7478    4.8508    3.9868 H         1 <0>         0.1246
     64 H29        -4.5061    4.8345  -12.6943 H         1 <0>         0.4139
     65 H30        -3.2272    5.8504  -11.9467 H         1 <0>         0.4091
@<TRIPOS>BOND
     1    1    2 1
     2    1   37 1
     3    1   38 1
     4    1   39 1
     5    2    3 1
     6    2   40 1
     7    2   41 1
     8    3    4 1
     9    3   42 1
    10    3   43 1
    11    4   12 1
    12    4    5 1
    13    5   10 ar
    14    5    6 ar
    15    6    7 ar
    16    6   44 1
    17    7    8 ar
    18    7   45 1
    19    8    9 ar
    20    8   33 1
    21    9   10 ar
    22    9   46 1
    23   10   11 1
    24   11   12 2
    25   12   13 1
    26   13   14 1
    27   13   47 1
    28   13   48 1
    29   14   15 1
    30   14   49 1
    31   14   50 1
    32   15   16 2
    33   15   17 am
    34   17   21 1
    35   17   18 1
    36   18   19 1
    37   18   51 1
    38   18   52 1
    39   19   20 1
    40   19   53 1
    41   19   54 1
    42   20   21 1
    43   20   55 1
    44   20   56 1
    45   21   22 1
    46   21   23 1
    47   23   28 ar
    48   23   24 ar
    49   24   25 ar
    50   24   57 1
    51   25   26 ar
    52   25   58 1
    53   26   32 1
    54   26   27 ar
    55   27   28 ar
    56   27   29 1
    57   28   59 1
    58   29   30 1
    59   30   31 1
    60   30   60 1
    61   30   61 1
    62   31   32 1
    63   31   62 1
    64   31   63 1
    65   33   34 2
    66   33   35 2
    67   33   36 1
    68   36   64 1
    69   36   65 1
@<TRIPOS>MOLECULE
ZINC39469567
   62    66     0     0     0
SMALL
USER_CHARGES

@<TRIPOS>ATOM
      1 C1         -0.0187    1.5258    0.0104 C.3       1 <0>        -0.1605
      2 C2          0.0021   -0.0041    0.0020 C.3       1 <0>         0.1137
      3 O1          0.6709   -0.4649   -1.1737 O.3       1 <0>        -0.7557
      4 P1          0.8773   -2.0258   -1.5102 P.3       1 <0>         2.4647
      5 O2          1.2847   -2.7626   -0.2931 O.2       1 <0>        -1.0294
      6 N1         -0.5110   -2.6654   -2.1328 N.pl3     1 <0>        -1.0394
      7 N2         -0.4070   -3.8268   -2.8719 N.3       1 <0>        -0.2482
      8 C3         -1.7546   -4.1467   -3.3727 C.3       1 <0>         0.0399
      9 C4         -1.7494   -5.4434   -4.1691 C.3       1 <0>        -0.0490
     10 H1         -2.7518   -5.6334   -4.5528 H         1 <0>         0.1001
     11 C5         -1.3228   -6.5979   -3.3028 C.2       1 <0>        -0.1037
     12 C6         -0.8319   -7.7071   -3.8822 C.2       1 <0>        -0.0189
     13 C7         -0.7352   -7.7690   -5.3570 C.2       1 <0>        -0.6705
     14 C8         -0.7101   -6.6459   -6.0636 C.2       1 <0>         0.0208
     15 C9         -0.7742   -5.3214   -5.3435 C.3       1 <0>        -0.0720
     16 H2         -1.1160   -4.5510   -6.0348 H         1 <0>         0.0995
     17 C10         0.6106   -4.9765   -4.7934 C.3       1 <0>        -0.1056
     18 C11         0.5567   -3.6862   -3.9677 C.3       1 <0>        -0.0129
     19 H3          0.2569   -2.8578   -4.6096 H         1 <0>         0.0674
     20 C12         1.9739   -3.4287   -3.4402 C.3       1 <0>         0.1087
     21 O3          1.9934   -2.2078   -2.6798 O.3       1 <0>        -0.7253
     22 S1         -0.6530   -9.3286   -6.1727 S.o2      1 <0>         2.6621
     23 O4         -0.3594   -9.0586   -7.5366 O.2       1 <0>        -0.9586
     24 O5          0.1670  -10.1651   -5.3681 O.2       1 <0>        -0.9047
     25 O6         -2.0515   -9.9283   -6.1392 O.3       1 <0>        -0.6570
     26 C13        -2.9199   -9.3548   -7.0131 C.ar      1 <0>         0.0616
     27 C14        -3.6805   -8.2628   -6.6212 C.ar      1 <0>        -0.1225
     28 C15        -4.5622   -7.6813   -7.5116 C.ar      1 <0>        -0.1038
     29 C16        -4.6873   -8.1871   -8.7924 C.ar      1 <0>        -0.0995
     30 C17        -3.9307   -9.2756   -9.1853 C.ar      1 <0>        -0.1007
     31 C18        -3.0431   -9.8568   -8.3006 C.ar      1 <0>        -0.0923
     32 C19        -0.3920   -8.8550   -3.0527 C.ar      1 <0>        -0.0820
     33 C20        -1.1767  -10.0037   -2.9751 C.ar      1 <0>        -0.0848
     34 C21        -0.7630  -11.0691   -2.2017 C.ar      1 <0>        -0.1202
     35 C22         0.4290  -11.0011   -1.5019 C.ar      1 <0>        -0.0948
     36 C23         1.2150   -9.8666   -1.5718 C.ar      1 <0>        -0.1442
     37 C24         0.8149   -8.7917   -2.3495 C.ar      1 <0>         0.1346
     38 O7          1.5893   -7.6781   -2.4234 O.3       1 <0>        -0.4937
     39 H4          1.0039    1.9031    0.0027 H         1 <0>         0.0707
     40 H5         -0.5459    1.8868   -0.8726 H         1 <0>         0.0646
     41 H6         -0.5289    1.8773    0.9072 H         1 <0>         0.0806
     42 H7          0.5293   -0.3651    0.8851 H         1 <0>         0.0792
     43 H8         -1.0205   -0.3814    0.0098 H         1 <0>         0.0574
     44 H9         -1.3700   -2.2399   -1.9849 H         1 <0>         0.4037
     45 H10        -2.4353   -4.2488   -2.5275 H         1 <0>         0.0989
     46 H11        -2.1002   -3.3351   -4.0130 H         1 <0>         0.0542
     47 H12        -1.4097   -6.5358   -2.2281 H         1 <0>         0.1331
     48 H13        -0.6329   -6.6841   -7.1402 H         1 <0>         0.1490
     49 H14         0.9599   -5.7931   -4.1616 H         1 <0>         0.1033
     50 H15         1.3042   -4.8432   -5.6236 H         1 <0>         0.0881
     51 H16         2.2797   -4.2581   -2.8024 H         1 <0>         0.0894
     52 H17         2.6637   -3.3441   -4.2799 H         1 <0>         0.1150
     53 H18        -3.5837   -7.8678   -5.6207 H         1 <0>         0.1385
     54 H19        -5.1546   -6.8312   -7.2070 H         1 <0>         0.1384
     55 H20        -5.3774   -7.7313   -9.4869 H         1 <0>         0.1365
     56 H21        -4.0305   -9.6690  -10.1861 H         1 <0>         0.1411
     57 H22        -2.4491  -10.7043   -8.6093 H         1 <0>         0.1406
     58 H23        -2.1079  -10.0601   -3.5192 H         1 <0>         0.1218
     59 H24        -1.3719  -11.9591   -2.1421 H         1 <0>         0.1256
     60 H25         0.7463  -11.8384   -0.8981 H         1 <0>         0.1266
     61 H26         2.1440   -9.8194   -1.0231 H         1 <0>         0.1303
     62 H27         1.3900   -7.0148   -1.7486 H         1 <0>         0.3907
@<TRIPOS>BOND
     1    1    2 1
     2    1   39 1
     3    1   40 1
     4    1   41 1
     5    2    3 1
     6    2   42 1
     7    2   43 1
     8    3    4 1
     9    4   21 1
    10    4    5 2
    11    4    6 1
    12    6    7 1
    13    6   44 1
    14    7   18 1
    15    7    8 1
    16    8    9 1
    17    8   45 1
    18    8   46 1
    19    9   10 1
    20    9   15 1
    21    9   11 1
    22   11   12 2
    23   11   47 1
    24   12   13 1
    25   12   32 1
    26   13   14 2
    27   13   22 1
    28   14   15 1
    29   14   48 1
    30   15   16 1
    31   15   17 1
    32   17   18 1
    33   17   49 1
    34   17   50 1
    35   18   19 1
    36   18   20 1
    37   20   21 1
    38   20   51 1
    39   20   52 1
    40   22   23 2
    41   22   24 2
    42   22   25 1
    43   25   26 1
    44   26   31 ar
    45   26   27 ar
    46   27   28 ar
    47   27   53 1
    48   28   29 ar
    49   28   54 1
    50   29   30 ar
    51   29   55 1
    52   30   31 ar
    53   30   56 1
    54   31   57 1
    55   32   37 ar
    56   32   33 ar
    57   33   34 ar
    58   33   58 1
    59   34   35 ar
    60   34   59 1
    61   35   36 ar
    62   35   60 1
    63   36   37 ar
    64   36   61 1
    65   37   38 1
    66   38   62 1
@<TRIPOS>MOLECULE
ZINC64816143
   61    65     0     0     0
SMALL
USER_CHARGES

@<TRIPOS>ATOM
      1 C1         -1.8391    0.9243    2.6712 C.3       1 <0>        -0.1746
      2 C2         -1.7372   -0.5496    2.3741 C.2       1 <0>         0.5113
      3 O1         -1.8404   -1.3580    3.2725 O.2       1 <0>        -0.5198
      4 N1         -1.5314   -0.9696    1.1101 N.am      1 <0>        -0.6777
      5 C3         -1.3391   -2.3320    0.8472 C.ar      1 <0>         0.1469
      6 C4         -0.4593   -2.7290   -0.1512 C.ar      1 <0>        -0.1254
      7 C5         -0.2700   -4.0715   -0.4106 C.ar      1 <0>        -0.0945
      8 C6         -0.9591   -5.0253    0.3273 C.ar      1 <0>         0.1197
      9 C7         -1.8387   -4.6281    1.3262 C.ar      1 <0>        -0.0966
     10 C8         -2.0239   -3.2856    1.5889 C.ar      1 <0>        -0.1002
     11 N2         -0.7676   -6.3868    0.0640 N.am      1 <0>        -0.5681
     12 C9          0.4665   -6.9237    0.2202 C.2       1 <0>         0.6070
     13 O2          1.3670   -6.3142    0.7654 O.2       1 <0>        -0.4754
     14 C10         0.6576   -8.2850   -0.3055 C.2       1 <0>        -0.0537
     15 C11         1.6866   -9.1691   -0.1634 C.2       1 <0>        -0.1084
     16 C12         1.2839  -10.3164   -0.8838 C.2       1 <0>         0.0918
     17 N3          0.0924  -10.0671   -1.3991 N.2       1 <0>        -0.2230
     18 N4         -0.2971   -8.8914   -1.0929 N.pl3     1 <0>        -0.2730
     19 C13        -1.5282   -8.1864   -1.4720 C.3       1 <0>         0.1269
     20 C14        -1.9027   -7.1958   -0.3664 C.3       1 <0>         0.1453
     21 C15        -2.4417   -7.9713    0.8374 C.3       1 <0>        -0.1556
     22 C16        -2.9861   -6.2816   -0.8779 C.2       1 <0>         0.5266
     23 O3         -4.1442   -6.4900   -0.5840 O.2       1 <0>        -0.5032
     24 N5         -2.6681   -5.2325   -1.6619 N.am      1 <0>        -0.7132
     25 C17        -3.7058   -4.2830   -2.0715 C.3       1 <0>         0.1620
     26 C18        -3.1248   -3.2950   -3.0499 C.ar      1 <0>        -0.1237
     27 C19        -2.5282   -2.1361   -2.5891 C.ar      1 <0>        -0.0679
     28 C20        -1.9947   -1.2295   -3.4854 C.ar      1 <0>        -0.1560
     29 C21        -2.0577   -1.4823   -4.8453 C.ar      1 <0>         0.1120
     30 C22        -2.6554   -2.6433   -5.3055 C.ar      1 <0>        -0.1548
     31 C23        -3.1836   -3.5509   -4.4071 C.ar      1 <0>        -0.0677
     32 F1         -1.5368   -0.5965   -5.7224 F         1 <0>        -0.1357
     33 C24         2.0560  -11.5689   -1.0342 C.2       1 <0>         0.0583
     34 C25         1.6657  -12.6670   -1.7329 C.2       1 <0>        -0.1681
     35 C26         2.7007  -13.6163   -1.6091 C.2       1 <0>        -0.2137
     36 C27         3.6609  -13.0558   -0.8488 C.2       1 <0>        -0.0251
     37 O4          3.2702  -11.8167   -0.5073 O.3       1 <0>        -0.1670
     38 H1         -2.0048    1.0691    3.7388 H         1 <0>         0.0984
     39 H2         -0.9137    1.4191    2.3767 H         1 <0>         0.0933
     40 H3         -2.6727    1.3506    2.1131 H         1 <0>         0.0930
     41 H4         -1.5165   -0.3284    0.3823 H         1 <0>         0.4122
     42 H5          0.0766   -1.9874   -0.7250 H         1 <0>         0.1339
     43 H6          0.4137   -4.3803   -1.1875 H         1 <0>         0.1287
     44 H7         -2.3747   -5.3696    1.9000 H         1 <0>         0.1300
     45 H8         -2.7045   -2.9769    2.3686 H         1 <0>         0.1456
     46 H9          2.6082   -9.0239    0.3807 H         1 <0>         0.1753
     47 H10        -1.3668   -7.6493   -2.4067 H         1 <0>         0.1085
     48 H11        -2.3354   -8.9075   -1.6009 H         1 <0>         0.1363
     49 H12        -2.7600   -7.2699    1.6086 H         1 <0>         0.0799
     50 H13        -3.2910   -8.5798    0.5268 H         1 <0>         0.0918
     51 H14        -1.6581   -8.6167    1.2343 H         1 <0>         0.0718
     52 H15        -1.7521   -5.1062   -1.9551 H         1 <0>         0.4046
     53 H16        -4.5262   -4.8229   -2.5442 H         1 <0>         0.0876
     54 H17        -4.0777   -3.7512   -1.1957 H         1 <0>         0.0812
     55 H18        -2.4795   -1.9389   -1.5284 H         1 <0>         0.1321
     56 H19        -1.5290   -0.3240   -3.1253 H         1 <0>         0.1381
     57 H20        -2.7054   -2.8414   -6.3660 H         1 <0>         0.1392
     58 H21        -3.6459   -4.4588   -4.7657 H         1 <0>         0.1359
     59 H22         0.7410  -12.7892   -2.2774 H         1 <0>         0.1540
     60 H23         2.7198  -14.6057   -2.0416 H         1 <0>         0.1537
     61 H24         4.5917  -13.5236   -0.5639 H         1 <0>         0.2093
@<TRIPOS>BOND
     1    1    2 1
     2    1   38 1
     3    1   39 1
     4    1   40 1
     5    2    3 2
     6    2    4 am
     7    4    5 1
     8    4   41 1
     9    5   10 ar
    10    5    6 ar
    11    6    7 ar
    12    6   42 1
    13    7    8 ar
    14    7   43 1
    15    8    9 ar
    16    8   11 1
    17    9   10 ar
    18    9   44 1
    19   10   45 1
    20   11   20 1
    21   11   12 am
    22   12   13 2
    23   12   14 1
    24   14   18 1
    25   14   15 2
    26   15   16 1
    27   15   46 1
    28   16   17 2
    29   16   33 1
    30   17   18 1
    31   18   19 1
    32   19   20 1
    33   19   47 1
    34   19   48 1
    35   20   21 1
    36   20   22 1
    37   21   49 1
    38   21   50 1
    39   21   51 1
    40   22   23 2
    41   22   24 am
    42   24   25 1
    43   24   52 1
    44   25   26 1
    45   25   53 1
    46   25   54 1
    47   26   31 ar
    48   26   27 ar
    49   27   28 ar
    50   27   55 1
    51   28   29 ar
    52   28   56 1
    53   29   30 ar
    54   29   32 1
    55   30   31 ar
    56   30   57 1
    57   31   58 1
    58   33   37 1
    59   33   34 2
    60   34   35 1
    61   34   59 1
    62   35   36 2
    63   35   60 1
    64   36   37 1
    65   36   61 1
@<TRIPOS>MOLECULE
ZINC02183450
   63    67     0     0     0
SMALL
USER_CHARGES
benzyl-benzylsulfanyl-tert-butyl-BLAHone
@<TRIPOS>ATOM
      1 C1        -11.2500   -5.2508   -2.2733 C.3       1 <0>        -0.1457
      2 C2        -11.4863   -4.4452   -0.9942 C.3       1 <0>        -0.0622
      3 C3        -12.2095   -5.3191    0.0326 C.3       1 <0>        -0.1450
      4 C4        -12.3437   -3.2192   -1.3146 C.3       1 <0>        -0.1485
      5 C5        -10.1420   -3.9919   -0.4213 C.3       1 <0>        -0.0696
      6 H1         -9.5315   -4.8640   -0.1872 H         1 <0>         0.0772
      7 C6        -10.3762   -3.1688    0.8488 C.3       1 <0>        -0.1203
      8 C7         -9.0454   -2.9223    1.5603 C.3       1 <0>        -0.0576
      9 C8         -8.0567   -2.3258    0.5623 C.2       1 <0>        -0.0457
     10 C9         -8.2652   -2.4379   -0.7651 C.2       1 <0>        -0.1683
     11 S1         -6.8891   -1.6128   -1.5186 S.3       1 <0>         0.1398
     12 C10        -6.0351   -1.1175   -0.0435 C.2       1 <0>         0.1167
     13 C11        -6.8510   -1.6123    0.9877 C.2       1 <0>        -0.2494
     14 C12        -6.3975   -1.3544    2.3201 C.2       1 <0>         0.5609
     15 O1         -7.0409   -1.7459    3.2786 O.2       1 <0>        -0.5146
     16 N1         -5.2489   -0.6766    2.5002 N.am      1 <0>        -0.5066
     17 C13        -4.5185   -0.2263    1.4389 C.2       1 <0>         0.3726
     18 N2         -4.9132   -0.4511    0.2018 N.2       1 <0>        -0.4975
     19 S2         -3.0240    0.6615    1.7265 S.3       1 <0>         0.0259
     20 C14        -2.5137    0.9795    0.0193 C.3       1 <0>        -0.0683
     21 C15        -1.2190    1.7506    0.0173 C.ar      1 <0>        -0.0889
     22 C16        -0.0126    1.0758    0.0080 C.ar      1 <0>        -0.0984
     23 C17         1.1750    1.7832    0.0004 C.ar      1 <0>        -0.1188
     24 C18         1.1563    3.1654    0.0076 C.ar      1 <0>        -0.1079
     25 C19        -0.0501    3.8402    0.0223 C.ar      1 <0>        -0.1188
     26 C20        -1.2377    3.1328    0.0299 C.ar      1 <0>        -0.0983
     27 C21        -4.7759   -0.4132    3.8615 C.3       1 <0>         0.1280
     28 C22        -5.3416    0.8972    4.3451 C.ar      1 <0>        -0.1234
     29 C23        -4.6456    2.0720    4.1297 C.ar      1 <0>        -0.0990
     30 C24        -5.1668    3.2746    4.5691 C.ar      1 <0>        -0.1230
     31 C25        -6.3790    3.3011    5.2331 C.ar      1 <0>        -0.1060
     32 C26        -7.0724    2.1257    5.4531 C.ar      1 <0>        -0.1240
     33 C27        -6.5537    0.9237    5.0091 C.ar      1 <0>        -0.0879
     34 C28        -9.4136   -3.1146   -1.4495 C.3       1 <0>        -0.0350
     35 H2        -10.6392   -6.1242   -2.0450 H         1 <0>         0.0554
     36 H3        -12.2077   -5.5738   -2.6814 H         1 <0>         0.0559
     37 H4        -10.7347   -4.6282   -3.0047 H         1 <0>         0.0569
     38 H5        -12.3779   -4.7452    0.9439 H         1 <0>         0.0595
     39 H6        -13.1673   -5.6421   -0.3755 H         1 <0>         0.0556
     40 H7        -11.5987   -6.1925    0.2609 H         1 <0>         0.0552
     41 H8        -11.8284   -2.5967   -2.0461 H         1 <0>         0.0578
     42 H9        -13.3014   -3.5422   -1.7227 H         1 <0>         0.0551
     43 H10       -12.5120   -2.6453   -0.4033 H         1 <0>         0.0587
     44 H11       -10.8273   -2.2129    0.5829 H         1 <0>         0.0675
     45 H12       -11.0473   -3.7123    1.5139 H         1 <0>         0.0758
     46 H13        -9.1959   -2.2265    2.3857 H         1 <0>         0.0853
     47 H14        -8.6549   -3.8658    1.9419 H         1 <0>         0.0776
     48 H15        -3.2837    1.5610   -0.4877 H         1 <0>         0.1123
     49 H16        -2.3729    0.0317   -0.5003 H         1 <0>         0.1119
     50 H17         0.0021   -0.0041    0.0020 H         1 <0>         0.1266
     51 H18         2.1175    1.2560   -0.0115 H         1 <0>         0.1268
     52 H19         2.0841    3.7181    0.0014 H         1 <0>         0.1255
     53 H20        -0.0647    4.9201    0.0276 H         1 <0>         0.1268
     54 H21        -2.1802    3.6600    0.0410 H         1 <0>         0.1265
     55 H22        -5.1036   -1.2162    4.5218 H         1 <0>         0.1178
     56 H23        -3.6871   -0.3621    3.8643 H         1 <0>         0.1066
     57 H24        -3.6965    2.0507    3.6149 H         1 <0>         0.1310
     58 H25        -4.6249    4.1929    4.3975 H         1 <0>         0.1263
     59 H26        -6.7841    4.2402    5.5802 H         1 <0>         0.1245
     60 H27        -8.0193    2.1464    5.9722 H         1 <0>         0.1250
     61 H28        -7.0953    0.0054    5.1813 H         1 <0>         0.1302
     62 H29       -10.0995   -2.3647   -1.8436 H         1 <0>         0.0899
     63 H30        -9.0411   -3.7355   -2.2643 H         1 <0>         0.0839
@<TRIPOS>BOND
     1    1    2 1
     2    1   35 1
     3    1   36 1
     4    1   37 1
     5    2    3 1
     6    2    4 1
     7    2    5 1
     8    3   38 1
     9    3   39 1
    10    3   40 1
    11    4   41 1
    12    4   42 1
    13    4   43 1
    14    5    6 1
    15    5   34 1
    16    5    7 1
    17    7    8 1
    18    7   44 1
    19    7   45 1
    20    8    9 1
    21    8   46 1
    22    8   47 1
    23    9   13 1
    24    9   10 2
    25   10   11 1
    26   10   34 1
    27   11   12 1
    28   12   18 1
    29   12   13 2
    30   13   14 1
    31   14   15 2
    32   14   16 am
    33   16   17 1
    34   16   27 1
    35   17   18 2
    36   17   19 1
    37   19   20 1
    38   20   21 1
    39   20   48 1
    40   20   49 1
    41   21   26 ar
    42   21   22 ar
    43   22   23 ar
    44   22   50 1
    45   23   24 ar
    46   23   51 1
    47   24   25 ar
    48   24   52 1
    49   25   26 ar
    50   25   53 1
    51   26   54 1
    52   27   28 1
    53   27   55 1
    54   27   56 1
    55   28   33 ar
    56   28   29 ar
    57   29   30 ar
    58   29   57 1
    59   30   31 ar
    60   30   58 1
    61   31   32 ar
    62   31   59 1
    63   32   33 ar
    64   32   60 1
    65   33   61 1
    66   34   62 1
    67   34   63 1
@<TRIPOS>MOLECULE
ZINC16885825
   60    63     0     0     0
SMALL
USER_CHARGES
3-[(2-chlorophenyl)methyl]-5-[(2,4-dimethylphenyl)methyl]-6-[(E)-2-(2-fluorophenyl)vinyl]-2-methyl-pyrimidin-4-one
@<TRIPOS>ATOM
      1 C1          4.7158    4.3985   -5.1474 C.3       1 <0>        -0.1144
      2 C2          4.4036    3.8664   -3.7724 C.ar      1 <0>        -0.0872
      3 C3          3.3485    2.9911   -3.5931 C.ar      1 <0>        -0.1237
      4 C4          3.0619    2.5035   -2.3320 C.ar      1 <0>        -0.1010
      5 C5          3.8302    2.8910   -1.2499 C.ar      1 <0>        -0.0746
      6 C6          4.8816    3.7702   -1.4283 C.ar      1 <0>        -0.0800
      7 C7          5.1717    4.2539   -2.6906 C.ar      1 <0>        -0.1181
      8 C8          5.7152    4.1974   -0.2478 C.3       1 <0>        -0.1184
      9 C9          3.5173    2.3597    0.1252 C.3       1 <0>        -0.0106
     10 C10         2.2563    1.5364    0.0708 C.2       1 <0>        -0.2487
     11 C11         2.3131    0.1582   -0.1036 C.2       1 <0>         0.2136
     12 N1          1.1691   -0.5524   -0.1480 N.2       1 <0>        -0.5305
     13 C12         0.0078    0.0274   -0.0306 C.2       1 <0>         0.4054
     14 N2         -0.1060    1.3661    0.1405 N.am      1 <0>        -0.5165
     15 C13         0.9961    2.1426    0.1949 C.2       1 <0>         0.5291
     16 O1          0.8993    3.3495    0.3486 O.2       1 <0>        -0.5211
     17 C14        -1.4330    1.9750    0.2613 C.3       1 <0>         0.1254
     18 C15        -1.5895    2.5698    1.6370 C.ar      1 <0>        -0.1049
     19 C16        -1.5714    3.9420    1.8030 C.ar      1 <0>        -0.0594
     20 C17        -1.7143    4.4878    3.0649 C.ar      1 <0>        -0.1166
     21 C18        -1.8765    3.6616    4.1616 C.ar      1 <0>        -0.0959
     22 C19        -1.8952    2.2897    3.9969 C.ar      1 <0>        -0.1150
     23 C20        -1.7569    1.7429    2.7333 C.ar      1 <0>        -0.0260
     24 Cl1        -1.7875    0.0198    2.5246 Cl        1 <0>        -0.0633
     25 C21        -1.2413   -0.8138   -0.0873 C.3       1 <0>        -0.1329
     26 C22         3.6101   -0.5180   -0.2387 C.2       1 <0>        -0.1254
     27 C23         3.6590   -1.8526   -0.4078 C.2       1 <0>        -0.0460
     28 C24         4.9588   -2.5302   -0.5432 C.ar      1 <0>        -0.1019
     29 C25         6.1450   -1.7913   -0.4969 C.ar      1 <0>        -0.0783
     30 C26         7.3584   -2.4328   -0.6240 C.ar      1 <0>        -0.1294
     31 C27         7.4064   -3.8057   -0.7973 C.ar      1 <0>        -0.0822
     32 C28         6.2392   -4.5457   -0.8445 C.ar      1 <0>        -0.1550
     33 C29         5.0143   -3.9189   -0.7134 C.ar      1 <0>         0.1171
     34 F1          3.8745   -4.6429   -0.7544 F         1 <0>        -0.1318
     35 H1          4.1600    5.3211   -5.3148 H         1 <0>         0.0692
     36 H2          5.7844    4.5988   -5.2254 H         1 <0>         0.0656
     37 H3          4.4289    3.6604   -5.8964 H         1 <0>         0.0648
     38 H4          2.7481    2.6886   -4.4383 H         1 <0>         0.1168
     39 H5          2.2375    1.8200   -2.1918 H         1 <0>         0.1098
     40 H6          5.9956    4.9379   -2.8307 H         1 <0>         0.1206
     41 H7          6.5960    3.5594   -0.1750 H         1 <0>         0.0707
     42 H8          6.0270    5.2336   -0.3792 H         1 <0>         0.0666
     43 H9          5.1256    4.1083    0.6646 H         1 <0>         0.0684
     44 H10         3.3776    3.1932    0.8137 H         1 <0>         0.0918
     45 H11         4.3429    1.7375    0.4708 H         1 <0>         0.0860
     46 H12        -1.5426    2.7589   -0.4881 H         1 <0>         0.1059
     47 H13        -2.1975    1.2139    0.1054 H         1 <0>         0.1160
     48 H14        -1.4451    4.5879    0.9467 H         1 <0>         0.1367
     49 H15        -1.6998    5.5599    3.1941 H         1 <0>         0.1326
     50 H16        -1.9889    4.0886    5.1473 H         1 <0>         0.1345
     51 H17        -2.0222    1.6445    4.8536 H         1 <0>         0.1355
     52 H18        -1.5300   -0.9659   -1.1273 H         1 <0>         0.1017
     53 H19        -1.0508   -1.7791    0.3818 H         1 <0>         0.1035
     54 H20        -2.0464   -0.3049    0.4426 H         1 <0>         0.1003
     55 H21         4.5245    0.0556   -0.2025 H         1 <0>         0.1371
     56 H22         2.7447   -2.4262   -0.4440 H         1 <0>         0.1411
     57 H23         6.1105   -0.7203   -0.3622 H         1 <0>         0.1356
     58 H24         8.2750   -1.8626   -0.5879 H         1 <0>         0.1333
     59 H25         8.3608   -4.3013   -0.8965 H         1 <0>         0.1353
     60 H26         6.2849   -5.6161   -0.9803 H         1 <0>         0.1389
@<TRIPOS>BOND
     1    1    2 1
     2    1   35 1
     3    1   36 1
     4    1   37 1
     5    2    7 ar
     6    2    3 ar
     7    3    4 ar
     8    3   38 1
     9    4    5 ar
    10    4   39 1
    11    5    6 ar
    12    5    9 1
    13    6    7 ar
    14    6    8 1
    15    7   40 1
    16    8   41 1
    17    8   42 1
    18    8   43 1
    19    9   10 1
    20    9   44 1
    21    9   45 1
    22   10   15 1
    23   10   11 2
    24   11   12 1
    25   11   26 1
    26   12   13 2
    27   13   14 1
    28   13   25 1
    29   14   15 am
    30   14   17 1
    31   15   16 2
    32   17   18 1
    33   17   46 1
    34   17   47 1
    35   18   23 ar
    36   18   19 ar
    37   19   20 ar
    38   19   48 1
    39   20   21 ar
    40   20   49 1
    41   21   22 ar
    42   21   50 1
    43   22   23 ar
    44   22   51 1
    45   23   24 1
    46   25   52 1
    47   25   53 1
    48   25   54 1
    49   26   27 2
    50   26   55 1
    51   27   28 1
    52   27   56 1
    53   28   33 ar
    54   28   29 ar
    55   29   30 ar
    56   29   57 1
    57   30   31 ar
    58   30   58 1
    59   31   32 ar
    60   31   59 1
    61   32   33 ar
    62   32   60 1
    63   33   34 1
@<TRIPOS>MOLECULE
ZINC36372311
   88    91     0     0     0
SMALL
USER_CHARGES

@<TRIPOS>ATOM
      1 C1         -7.3672    0.4063    4.1636 C.3       1 <0>        -0.1541
      2 C2         -6.6173   -0.8675    3.7689 C.3       1 <0>        -0.1244
      3 C3         -7.6201   -1.9287    3.3116 C.3       1 <0>        -0.1108
      4 C4         -6.8702   -3.2026    2.9168 C.3       1 <0>        -0.1146
      5 C5         -7.8579   -4.2478    2.4664 C.2       1 <0>         0.4567
      6 O1         -9.0404   -3.9994    2.4616 O.2       1 <0>        -0.5062
      7 O2         -7.4241   -5.4548    2.0705 O.3       1 <0>        -0.3424
      8 C6         -8.4149   -6.3962    1.6568 C.3       1 <0>         0.0938
      9 H1         -9.3419   -6.2027    2.2022 H         1 <0>         0.0818
     10 C7         -7.9403   -7.8142    1.9589 C.3       1 <0>        -0.1094
     11 C8         -6.6044   -8.1265    1.2928 C.3       1 <0>        -0.1044
     12 C9         -6.6739   -7.8310   -0.2111 C.3       1 <0>        -0.0071
     13 C10        -6.1538   -8.9986   -1.0116 C.3       1 <0>        -0.0641
     14 H2         -5.3403   -9.4650   -0.4376 H         1 <0>         0.0636
     15 C11        -5.6059   -8.6650   -2.3875 C.3       1 <0>        -0.1101
     16 C12        -4.9227   -9.9115   -3.0005 C.3       1 <0>        -0.1037
     17 C13        -5.9290  -11.0207   -3.1268 C.3       1 <0>        -0.0463
     18 C14        -6.6312  -11.2807   -1.7819 C.3       1 <0>        -0.1136
     19 H3         -5.8628  -11.6513   -1.0539 H         1 <0>         0.1039
     20 C15        -7.2621  -10.0724   -1.1590 C.3       1 <0>        -0.0592
     21 H4         -7.6204  -10.3281   -0.1390 H         1 <0>         0.0655
     22 C16        -8.4172   -9.4726   -1.9477 C.3       1 <0>        -0.0860
     23 C17        -8.8779   -8.2055   -1.2750 C.2       1 <0>        -0.1589
     24 C18        -8.1125   -7.4924   -0.5170 C.2       1 <0>        -0.1056
     25 C19        -8.6766   -6.2473    0.1506 C.3       1 <0>        -0.1012
     26 C20        -7.5085  -12.4907   -2.1216 C.3       1 <0>        -0.1150
     27 C21        -6.5475  -13.3641   -2.9807 C.3       1 <0>        -0.1215
     28 C22        -5.3960  -12.4325   -3.4439 C.3       1 <0>        -0.0796
     29 H5         -5.2476  -12.5262   -4.5200 H         1 <0>         0.0684
     30 C23        -4.1122  -12.7395   -2.6887 C.3       1 <0>        -0.0814
     31 H6         -3.3772  -11.9600   -2.8894 H         1 <0>         0.0705
     32 C24        -3.5609  -14.0907   -3.1481 C.3       1 <0>        -0.1487
     33 C25        -4.4035  -12.7913   -1.1875 C.3       1 <0>        -0.1236
     34 C26        -3.2772  -13.5427   -0.4751 C.3       1 <0>        -0.1257
     35 C27        -3.5685  -13.5945    1.0260 C.3       1 <0>        -0.1149
     36 C28        -2.4422  -14.3460    1.7385 C.3       1 <0>        -0.0976
     37 C29        -1.1386  -13.5559    1.6062 C.3       1 <0>        -0.1492
     38 C30        -2.7931  -14.5067    3.2190 C.3       1 <0>        -0.1489
     39 C31        -6.9024  -10.7098   -4.2714 C.3       1 <0>        -0.1495
     40 C32        -5.8141   -6.5946   -0.4712 C.3       1 <0>        -0.1428
     41 H7         -6.6528    1.1623    4.4894 H         1 <0>         0.0562
     42 H8         -7.9256    0.7800    3.3053 H         1 <0>         0.0551
     43 H9         -8.0575    0.1841    4.9774 H         1 <0>         0.0552
     44 H10        -5.9270   -0.6454    2.9551 H         1 <0>         0.0642
     45 H11        -6.0589   -1.2412    4.6272 H         1 <0>         0.0642
     46 H12        -8.3104   -2.1509    4.1253 H         1 <0>         0.0717
     47 H13        -8.1785   -1.5551    2.4532 H         1 <0>         0.0717
     48 H14        -6.1799   -2.9804    2.1030 H         1 <0>         0.1052
     49 H15        -6.3118   -3.5763    3.7751 H         1 <0>         0.1054
     50 H16        -7.8295   -7.9276    3.0413 H         1 <0>         0.0661
     51 H17        -8.6911   -8.5278    1.6160 H         1 <0>         0.0832
     52 H18        -5.8205   -7.5122    1.7365 H         1 <0>         0.0712
     53 H19        -6.3600   -9.1785    1.4381 H         1 <0>         0.0655
     54 H20        -6.4049   -8.3303   -3.0401 H         1 <0>         0.0638
     55 H21        -4.8422   -7.8885   -2.3335 H         1 <0>         0.0603
     56 H22        -4.5248   -9.6488   -3.9846 H         1 <0>         0.0591
     57 H23        -4.0949  -10.1952   -2.3468 H         1 <0>         0.0635
     58 H24        -8.1249   -9.1747   -2.9503 H         1 <0>         0.0840
     59 H25        -9.2513  -10.1732   -1.9882 H         1 <0>         0.0670
     60 H26        -9.8916   -7.8849   -1.4461 H         1 <0>         0.1006
     61 H27        -9.7559   -6.2011   -0.0258 H         1 <0>         0.0761
     62 H28        -8.2038   -5.3480   -0.2321 H         1 <0>         0.0817
     63 H29        -7.7853  -13.0259   -1.2091 H         1 <0>         0.0570
     64 H30        -8.3952  -12.2078   -2.6775 H         1 <0>         0.0665
     65 H31        -6.1483  -14.1807   -2.3806 H         1 <0>         0.0674
     66 H32        -7.0771  -13.7624   -3.8449 H         1 <0>         0.0579
     67 H33        -4.2435  -14.8841   -2.8438 H         1 <0>         0.0543
     68 H34        -3.4623  -14.0928   -4.2337 H         1 <0>         0.0500
     69 H35        -2.5841  -14.2579   -2.6943 H         1 <0>         0.0562
     70 H36        -4.4685  -11.7766   -0.7948 H         1 <0>         0.0713
     71 H37        -5.3485  -13.3076   -1.0184 H         1 <0>         0.0739
     72 H38        -3.2122  -14.5574   -0.8678 H         1 <0>         0.0645
     73 H39        -2.3322  -13.0264   -0.6442 H         1 <0>         0.0617
     74 H40        -3.6335  -12.5798    1.4188 H         1 <0>         0.0595
     75 H41        -4.5135  -14.1108    1.1951 H         1 <0>         0.0590
     76 H42        -2.3184  -15.3297    1.2856 H         1 <0>         0.0672
     77 H43        -0.3362  -14.0912    2.1138 H         1 <0>         0.0515
     78 H44        -0.8886  -13.4414    0.5515 H         1 <0>         0.0563
     79 H45        -1.2624  -12.5722    2.0592 H         1 <0>         0.0530
     80 H46        -3.7218  -15.0695    3.3133 H         1 <0>         0.0530
     81 H47        -1.9907  -15.0420    3.7266 H         1 <0>         0.0530
     82 H48        -2.9169  -13.5230    3.6719 H         1 <0>         0.0534
     83 H49        -6.3839  -10.8053   -5.2254 H         1 <0>         0.0502
     84 H50        -7.7365  -11.4107   -4.2394 H         1 <0>         0.0587
     85 H51        -7.2783   -9.6925   -4.1624 H         1 <0>         0.0584
     86 H52        -4.7867   -6.7961   -0.1679 H         1 <0>         0.0547
     87 H53        -5.8384   -6.3521   -1.5336 H         1 <0>         0.0530
     88 H54        -6.2039   -5.7537    0.1024 H         1 <0>         0.0637
@<TRIPOS>BOND
     1    1    2 1
     2    1   41 1
     3    1   42 1
     4    1   43 1
     5    2    3 1
     6    2   44 1
     7    2   45 1
     8    3    4 1
     9    3   46 1
    10    3   47 1
    11    4    5 1
    12    4   48 1
    13    4   49 1
    14    5    6 2
    15    5    7 1
    16    7    8 1
    17    8    9 1
    18    8   25 1
    19    8   10 1
    20   10   11 1
    21   10   50 1
    22   10   51 1
    23   11   12 1
    24   11   52 1
    25   11   53 1
    26   12   24 1
    27   12   13 1
    28   12   40 1
    29   13   14 1
    30   13   20 1
    31   13   15 1
    32   15   16 1
    33   15   54 1
    34   15   55 1
    35   16   17 1
    36   16   56 1
    37   16   57 1
    38   17   28 1
    39   17   18 1
    40   17   39 1
    41   18   19 1
    42   18   20 1
    43   18   26 1
    44   20   21 1
    45   20   22 1
    46   22   23 1
    47   22   58 1
    48   22   59 1
    49   23   24 2
    50   23   60 1
    51   24   25 1
    52   25   61 1
    53   25   62 1
    54   26   27 1
    55   26   63 1
    56   26   64 1
    57   27   28 1
    58   27   65 1
    59   27   66 1
    60   28   29 1
    61   28   30 1
    62   30   31 1
    63   30   32 1
    64   30   33 1
    65   32   67 1
    66   32   68 1
    67   32   69 1
    68   33   34 1
    69   33   70 1
    70   33   71 1
    71   34   35 1
    72   34   72 1
    73   34   73 1
    74   35   36 1
    75   35   74 1
    76   35   75 1
    77   36   37 1
    78   36   38 1
    79   36   76 1
    80   37   77 1
    81   37   78 1
    82   37   79 1
    83   38   80 1
    84   38   81 1
    85   38   82 1
    86   39   83 1
    87   39   84 1
    88   39   85 1
    89   40   86 1
    90   40   87 1
    91   40   88 1
@<TRIPOS>MOLECULE
ZINC36046235
   82    85     0     0     0
SMALL
USER_CHARGES

@<TRIPOS>ATOM
      1 C1          0.0378    1.4995   -0.4819 C.3       1 <0>        -0.1513
      2 C2         -0.0545    0.0258   -0.0810 C.3       1 <0>        -0.0867
      3 H1          0.3912   -0.5915   -0.8610 H         1 <0>         0.0773
      4 C3          0.6965   -0.1930    1.2339 C.3       1 <0>        -0.1236
      5 C4          2.1716    0.1664    1.0447 C.3       1 <0>        -0.1227
      6 C5          2.9226   -0.0524    2.3596 C.3       1 <0>        -0.1143
      7 C6          4.3977    0.3069    2.1704 C.3       1 <0>        -0.0981
      8 C7          5.1231    0.2080    3.5138 C.3       1 <0>        -0.1489
      9 C8          5.0352   -0.6634    1.1739 C.3       1 <0>        -0.1492
     10 C9         -1.5200   -0.3617    0.0994 C.3       1 <0>        -0.0790
     11 H2         -1.9770    0.1821    0.9170 H         1 <0>         0.0700
     12 C10        -2.3050   -0.1473   -1.2202 C.3       1 <0>        -0.1209
     13 C11        -3.0962   -1.4630   -1.4774 C.3       1 <0>        -0.1178
     14 C12        -3.0952   -2.1130   -0.0826 C.3       1 <0>        -0.0740
     15 H3         -3.7546   -1.5060    0.5691 H         1 <0>         0.0656
     16 C13        -1.6313   -1.8835    0.3505 C.3       1 <0>        -0.0474
     17 C14        -1.4380   -2.3039    1.7823 C.3       1 <0>        -0.1045
     18 C15        -2.0713   -3.6697    2.0656 C.3       1 <0>        -0.1091
     19 C16        -2.5295   -4.3891    0.8088 C.3       1 <0>        -0.0668
     20 H4         -1.6611   -4.6317    0.1876 H         1 <0>         0.0783
     21 C17        -3.5188   -3.5445    0.0029 C.3       1 <0>        -0.0651
     22 H5         -4.5035   -3.5941    0.5069 H         1 <0>         0.0647
     23 C18        -3.6731   -4.2026   -1.3739 C.3       1 <0>        -0.0788
     24 C19        -4.1406   -5.6163   -1.1530 C.2       1 <0>        -0.1557
     25 C20        -3.9419   -6.2715   -0.0517 C.2       1 <0>        -0.1053
     26 C21        -3.1795   -5.7322    1.1332 C.3       1 <0>        -0.0140
     27 C22        -4.1262   -5.6483    2.3228 C.3       1 <0>        -0.1032
     28 C23        -5.4365   -6.3698    2.0098 C.3       1 <0>        -0.1104
     29 C24        -5.2083   -7.7642    1.4389 C.3       1 <0>         0.0951
     30 H6         -6.1792   -8.2521    1.2955 H         1 <0>         0.0824
     31 C25        -4.4938   -7.6805    0.0851 C.3       1 <0>        -0.1022
     32 O1         -4.4375   -8.5458    2.3502 O.3       1 <0>        -0.3326
     33 C26        -4.6501   -9.8711    2.3473 C.2       1 <0>         0.4631
     34 O2         -5.4647  -10.3507    1.5947 O.2       1 <0>        -0.4822
     35 C27        -3.8727  -10.7610    3.2826 C.3       1 <0>        -0.0535
     36 H7         -3.3967  -10.1524    4.0515 H         1 <0>         0.1362
     37 C28        -4.8233  -11.7629    3.9411 C.3       1 <0>        -0.1446
     38 Br1        -2.4957  -11.7323    2.2699 Br        1 <0>        -0.0946
     39 C29        -2.0528   -6.7152    1.4702 C.3       1 <0>        -0.1446
     40 C30        -0.6171   -2.5555   -0.5736 C.3       1 <0>        -0.1492
     41 H8          1.0842    1.7762   -0.6107 H         1 <0>         0.0544
     42 H9         -0.4972    1.6554   -1.4187 H         1 <0>         0.0530
     43 H10        -0.4079    2.1168    0.2981 H         1 <0>         0.0506
     44 H11         0.2647    0.4406    2.0087 H         1 <0>         0.0574
     45 H12         0.6124   -1.2384    1.5307 H         1 <0>         0.0742
     46 H13         2.6034   -0.4672    0.2699 H         1 <0>         0.0615
     47 H14         2.2557    1.2118    0.7478 H         1 <0>         0.0616
     48 H15         2.4908    0.5811    3.1344 H         1 <0>         0.0591
     49 H16         2.8385   -1.0978    2.6564 H         1 <0>         0.0598
     50 H17         4.4776    1.3247    1.7884 H         1 <0>         0.0672
     51 H18         5.0432   -0.8097    3.8958 H         1 <0>         0.0535
     52 H19         6.1740    0.4640    3.3790 H         1 <0>         0.0531
     53 H20         4.6689    0.8993    4.2237 H         1 <0>         0.0531
     54 H21         4.5184   -0.5929    0.2168 H         1 <0>         0.0563
     55 H22         6.0861   -0.4074    1.0390 H         1 <0>         0.0517
     56 H23         4.9553   -1.6811    1.5559 H         1 <0>         0.0531
     57 H24        -2.9964    0.6868   -1.1125 H         1 <0>         0.0597
     58 H25        -1.6136    0.0362   -2.0411 H         1 <0>         0.0641
     59 H26        -4.1190   -1.2306   -1.7812 H         1 <0>         0.0584
     60 H27        -2.6093   -2.0817   -2.2188 H         1 <0>         0.0720
     61 H28        -0.3645   -2.3470    2.0143 H         1 <0>         0.0658
     62 H29        -1.8851   -1.5531    2.4503 H         1 <0>         0.0577
     63 H30        -1.3445   -4.2910    2.6022 H         1 <0>         0.0597
     64 H31        -2.9291   -3.5232    2.7351 H         1 <0>         0.0597
     65 H32        -4.4151   -3.6623   -1.9575 H         1 <0>         0.0714
     66 H33        -2.7188   -4.2100   -1.8933 H         1 <0>         0.0746
     67 H34        -4.6688   -6.1085   -1.9540 H         1 <0>         0.1016
     68 H35        -3.6597   -6.1012    3.1966 H         1 <0>         0.0707
     69 H36        -4.3492   -4.6008    2.5391 H         1 <0>         0.0706
     70 H37        -6.0178   -6.4554    2.9326 H         1 <0>         0.0680
     71 H38        -6.0094   -5.7762    1.2954 H         1 <0>         0.0847
     72 H39        -5.2107   -7.8695   -0.7199 H         1 <0>         0.0795
     73 H40        -3.6929   -8.4151    0.0296 H         1 <0>         0.0827
     74 H41        -5.2992  -12.3715    3.1723 H         1 <0>         0.0831
     75 H42        -4.2610  -12.4065    4.6176 H         1 <0>         0.0875
     76 H43        -5.5867  -11.2244    4.5026 H         1 <0>         0.0787
     77 H44        -1.4920   -6.3447    2.3283 H         1 <0>         0.0566
     78 H45        -2.4797   -7.6894    1.7083 H         1 <0>         0.0652
     79 H46        -1.3854   -6.8104    0.6137 H         1 <0>         0.0498
     80 H47         0.3926   -2.2984   -0.2532 H         1 <0>         0.0601
     81 H48        -0.7474   -3.6368   -0.5311 H         1 <0>         0.0589
     82 H49        -0.7727   -2.2106   -1.5959 H         1 <0>         0.0571
@<TRIPOS>BOND
     1    1    2 1
     2    1   41 1
     3    1   42 1
     4    1   43 1
     5    2    3 1
     6    2    4 1
     7    2   10 1
     8    4    5 1
     9    4   44 1
    10    4   45 1
    11    5    6 1
    12    5   46 1
    13    5   47 1
    14    6    7 1
    15    6   48 1
    16    6   49 1
    17    7    8 1
    18    7    9 1
    19    7   50 1
    20    8   51 1
    21    8   52 1
    22    8   53 1
    23    9   54 1
    24    9   55 1
    25    9   56 1
    26   10   11 1
    27   10   16 1
    28   10   12 1
    29   12   13 1
    30   12   57 1
    31   12   58 1
    32   13   14 1
    33   13   59 1
    34   13   60 1
    35   14   15 1
    36   14   21 1
    37   14   16 1
    38   16   17 1
    39   16   40 1
    40   17   18 1
    41   17   61 1
    42   17   62 1
    43   18   19 1
    44   18   63 1
    45   18   64 1
    46   19   20 1
    47   19   26 1
    48   19   21 1
    49   21   22 1
    50   21   23 1
    51   23   24 1
    52   23   65 1
    53   23   66 1
    54   24   25 2
    55   24   67 1
    56   25   31 1
    57   25   26 1
    58   26   27 1
    59   26   39 1
    60   27   28 1
    61   27   68 1
    62   27   69 1
    63   28   29 1
    64   28   70 1
    65   28   71 1
    66   29   30 1
    67   29   31 1
    68   29   32 1
    69   31   72 1
    70   31   73 1
    71   32   33 1
    72   33   34 2
    73   33   35 1
    74   35   36 1
    75   35   37 1
    76   35   38 1
    77   37   74 1
    78   37   75 1
    79   37   76 1
    80   39   77 1
    81   39   78 1
    82   39   79 1
    83   40   80 1
    84   40   81 1
    85   40   82 1
@<TRIPOS>MOLECULE
ZINC15771315
   69    73     0     0     0
SMALL
USER_CHARGES

@<TRIPOS>ATOM
      1 C1          1.0700   -4.0658   -9.2493 C.3       1 <0>        -0.1540
      2 C2          0.9745   -4.0324   -7.7227 C.3       1 <0>        -0.1199
      3 C3          2.1780   -4.7601   -7.1203 C.3       1 <0>        -0.1216
      4 C4          2.0825   -4.7267   -5.5936 C.3       1 <0>         0.0148
      5 H1          1.5363   -3.8827   -5.1723 H         1 <0>         0.1253
      6 C5          2.0088   -6.0642   -4.8544 C.3       1 <0>         0.0372
      7 O1          3.1834   -5.2474   -4.8460 O.3       1 <0>        -0.3290
      8 C6          1.1869   -6.1249   -3.5927 C.ar      1 <0>        -0.0521
      9 C7         -0.1918   -6.0526   -3.6621 C.ar      1 <0>        -0.0877
     10 C8         -0.9461   -6.1082   -2.5052 C.ar      1 <0>        -0.1077
     11 C9         -0.3210   -6.2362   -1.2776 C.ar      1 <0>        -0.0279
     12 C10         1.0589   -6.3085   -1.2089 C.ar      1 <0>        -0.1094
     13 C11         1.8118   -6.2585   -2.3669 C.ar      1 <0>        -0.0830
     14 Cl1        -1.2677   -6.3055    0.1759 Cl        1 <0>        -0.0666
     15 C12         2.0356   -7.3442   -5.6922 C.3       1 <0>         0.1888
     16 H2          1.2540   -7.2985   -6.4506 H         1 <0>         0.1047
     17 C13         3.3992   -7.4799   -6.3727 C.3       1 <0>        -0.1349
     18 C14         3.3778   -8.6785   -7.3233 C.3       1 <0>        -0.1194
     19 C15         4.7415   -8.8142   -8.0037 C.3       1 <0>        -0.1507
     20 N1          1.8060   -8.5013   -4.8235 N.pl3     1 <0>        -0.6023
     21 C16         2.7541   -8.8264   -3.7522 C.3       1 <0>         0.1801
     22 C17         3.0041  -10.3140   -3.7430 C.2       1 <0>        -0.1432
     23 C18         2.0500  -11.1577   -4.1801 C.2       1 <0>        -0.0469
     24 C19         0.7879  -10.6243   -4.7102 C.2       1 <0>        -0.1752
     25 C20         0.6925   -9.2965   -4.9982 C.2       1 <0>         0.1611
     26 C21        -0.3723  -11.5211   -4.9252 C.ar      1 <0>        -0.0141
     27 C22        -1.5394  -11.3461   -4.1824 C.ar      1 <0>        -0.1148
     28 C23        -2.6165  -12.1839   -4.3873 C.ar      1 <0>        -0.1180
     29 C24        -2.5401  -13.1959   -5.3276 C.ar      1 <0>        -0.1265
     30 C25        -1.3848  -13.3746   -6.0673 C.ar      1 <0>        -0.1184
     31 C26        -0.3032  -12.5396   -5.8753 C.ar      1 <0>        -0.1106
     32 C27         4.2898  -10.8427   -3.2573 C.ar      1 <0>        -0.0361
     33 C28         4.6421  -10.7062   -1.9113 C.ar      1 <0>        -0.1078
     34 C29         5.8479  -11.2039   -1.4640 C.ar      1 <0>        -0.1190
     35 C30         6.7084  -11.8371   -2.3438 C.ar      1 <0>        -0.1210
     36 C31         6.3669  -11.9756   -3.6778 C.ar      1 <0>        -0.1194
     37 C32         5.1619  -11.4887   -4.1388 C.ar      1 <0>        -0.1064
     38 H3          1.9889   -3.5729   -9.5667 H         1 <0>         0.0557
     39 H4          1.0766   -5.1011   -9.5903 H         1 <0>         0.0556
     40 H5          0.2126   -3.5474   -9.6784 H         1 <0>         0.0581
     41 H6          0.9680   -2.9971   -7.3816 H         1 <0>         0.0660
     42 H7          0.0556   -4.5253   -7.4052 H         1 <0>         0.0659
     43 H8          2.1846   -5.7954   -7.4613 H         1 <0>         0.0840
     44 H9          3.0969   -4.2672   -7.4377 H         1 <0>         0.0803
     45 H10        -0.6797   -5.9523   -4.6204 H         1 <0>         0.1317
     46 H11        -2.0233   -6.0513   -2.5595 H         1 <0>         0.1359
     47 H12         1.5475   -6.4081   -0.2508 H         1 <0>         0.1346
     48 H13         2.8888   -6.3197   -2.3137 H         1 <0>         0.1302
     49 H14         3.6157   -6.5726   -6.9367 H         1 <0>         0.0842
     50 H15         4.1695   -7.6298   -5.6161 H         1 <0>         0.0725
     51 H16         3.1613   -9.5858   -6.7592 H         1 <0>         0.0684
     52 H17         2.6076   -8.5286   -8.0798 H         1 <0>         0.0585
     53 H18         4.9579   -7.9070   -8.5678 H         1 <0>         0.0524
     54 H19         5.5117   -8.9642   -7.2472 H         1 <0>         0.0529
     55 H20         4.7262   -9.6682   -8.6810 H         1 <0>         0.0541
     56 H21         3.6931   -8.3007   -3.9252 H         1 <0>         0.0789
     57 H22         2.3371   -8.5216   -2.7923 H         1 <0>         0.0607
     58 H23         2.2124  -12.2248   -4.1413 H         1 <0>         0.1133
     59 H24        -0.2339   -8.8742   -5.3584 H         1 <0>         0.1369
     60 H25        -1.6000  -10.5567   -3.4478 H         1 <0>         0.1187
     61 H26        -3.5208  -12.0496   -3.8124 H         1 <0>         0.1198
     62 H27        -3.3857  -13.8491   -5.4845 H         1 <0>         0.1188
     63 H28        -1.3308  -14.1668   -6.7994 H         1 <0>         0.1199
     64 H29         0.5965  -12.6770   -6.4567 H         1 <0>         0.1194
     65 H30         3.9718  -10.2120   -1.2236 H         1 <0>         0.1209
     66 H31         6.1216  -11.0989   -0.4245 H         1 <0>         0.1219
     67 H32         7.6513  -12.2248   -1.9876 H         1 <0>         0.1205
     68 H33         7.0438  -12.4703   -4.3585 H         1 <0>         0.1213
     69 H34         4.8946  -11.6018   -5.1791 H         1 <0>         0.1198
@<TRIPOS>BOND
     1    1    2 1
     2    1   38 1
     3    1   39 1
     4    1   40 1
     5    2    3 1
     6    2   41 1
     7    2   42 1
     8    3    4 1
     9    3   43 1
    10    3   44 1
    11    4    5 1
    12    4    7 1
    13    4    6 1
    14    6    7 1
    15    6    8 1
    16    6   15 1
    17    8   13 ar
    18    8    9 ar
    19    9   10 ar
    20    9   45 1
    21   10   11 ar
    22   10   46 1
    23   11   12 ar
    24   11   14 1
    25   12   13 ar
    26   12   47 1
    27   13   48 1
    28   15   16 1
    29   15   17 1
    30   15   20 1
    31   17   18 1
    32   17   49 1
    33   17   50 1
    34   18   19 1
    35   18   51 1
    36   18   52 1
    37   19   53 1
    38   19   54 1
    39   19   55 1
    40   20   25 1
    41   20   21 1
    42   21   22 1
    43   21   56 1
    44   21   57 1
    45   22   23 2
    46   22   32 1
    47   23   24 1
    48   23   58 1
    49   24   25 2
    50   24   26 1
    51   25   59 1
    52   26   31 ar
    53   26   27 ar
    54   27   28 ar
    55   27   60 1
    56   28   29 ar
    57   28   61 1
    58   29   30 ar
    59   29   62 1
    60   30   31 ar
    61   30   63 1
    62   31   64 1
    63   32   37 ar
    64   32   33 ar
    65   33   34 ar
    66   33   65 1
    67   34   35 ar
    68   34   66 1
    69   35   36 ar
    70   35   67 1
    71   36   37 ar
    72   36   68 1
    73   37   69 1
@<TRIPOS>MOLECULE
ZINC13224860
   51    53     0     0     0
SMALL
USER_CHARGES
(3R)-3-[(2-benzhydrylsulfanylacetyl)amino]-3-phenyl-propanoic acid
@<TRIPOS>ATOM
      1 C1         -4.0441    5.8095    0.0348 C.ar      1 <0>        -0.1264
      2 C2         -2.7015    5.6932    0.3428 C.ar      1 <0>        -0.1276
      3 C3         -2.1259    4.4422    0.4631 C.ar      1 <0>        -0.0619
      4 C4         -2.8930    3.3075    0.2759 C.ar      1 <0>        -0.0734
      5 C5         -4.2343    3.4239   -0.0373 C.ar      1 <0>        -0.1231
      6 C6         -4.8109    4.6749   -0.1533 C.ar      1 <0>        -0.1316
      7 C7         -2.2654    1.9437    0.4072 C.3       1 <0>         0.2003
      8 H1         -1.1845    2.0288    0.2959 H         1 <0>         0.1044
      9 C8         -2.5921    1.3624    1.7843 C.3       1 <0>        -0.1625
     10 C9         -1.9109    2.1818    2.8499 C.2       1 <0>         0.4689
     11 O1         -1.1399    3.0581    2.5375 O.co2     1 <0>        -0.6324
     12 N1         -2.7955    1.0600   -0.6341 N.am      1 <0>        -0.7198
     13 C10        -2.0766   -0.0032   -1.0458 C.2       1 <0>         0.5282
     14 O2         -0.9512   -0.1731   -0.6271 O.2       1 <0>        -0.5135
     15 C11        -2.6713   -0.9807   -2.0266 C.3       1 <0>        -0.1327
     16 S1         -1.4670   -2.2902   -2.3808 S.3       1 <0>        -0.1454
     17 C12        -2.3255   -3.3687   -3.5599 C.3       1 <0>         0.0003
     18 C13        -2.5763   -2.6143   -4.8401 C.ar      1 <0>        -0.0827
     19 C14        -1.5299   -1.9842   -5.4874 C.ar      1 <0>        -0.0955
     20 C15        -1.7591   -1.2963   -6.6643 C.ar      1 <0>        -0.1183
     21 C16        -3.0364   -1.2300   -7.1887 C.ar      1 <0>        -0.1183
     22 C17        -4.0838   -1.8554   -6.5384 C.ar      1 <0>        -0.1204
     23 C18        -3.8537   -2.5477   -5.3642 C.ar      1 <0>        -0.1118
     24 C19        -1.4729   -4.5775   -3.8479 C.ar      1 <0>        -0.0570
     25 C20        -0.1476   -4.4186   -4.2075 C.ar      1 <0>        -0.1008
     26 C21         0.6358   -5.5276   -4.4669 C.ar      1 <0>        -0.1173
     27 C22         0.0913   -6.7950   -4.3765 C.ar      1 <0>        -0.1177
     28 C23        -1.2355   -6.9536   -4.0225 C.ar      1 <0>        -0.1195
     29 C24        -2.0175   -5.8448   -3.7579 C.ar      1 <0>        -0.1043
     30 H2         -4.4940    6.7869   -0.0586 H         1 <0>         0.1145
     31 H3         -2.1024    6.5797    0.4897 H         1 <0>         0.1184
     32 H4         -1.0770    4.3513    0.7038 H         1 <0>         0.1386
     33 H5         -4.8326    2.5374   -0.1879 H         1 <0>         0.1125
     34 H6         -5.8599    4.7658   -0.3936 H         1 <0>         0.1152
     35 H7         -3.6704    1.3856    1.9420 H         1 <0>         0.0647
     36 H8         -2.2393    0.3324    1.8369 H         1 <0>         0.0714
     37 H9         -3.6637    1.2400   -1.0273 H         1 <0>         0.3946
     38 H10        -3.5721   -1.4214   -1.5994 H         1 <0>         0.1087
     39 H11        -2.9243   -0.4602   -2.9502 H         1 <0>         0.1077
     40 H12        -3.2767   -3.6882   -3.1341 H         1 <0>         0.1005
     41 H13        -0.5327   -2.0325   -5.0756 H         1 <0>         0.1307
     42 H14        -0.9409   -0.8074   -7.1722 H         1 <0>         0.1235
     43 H15        -3.2162   -0.6894   -8.1062 H         1 <0>         0.1209
     44 H16        -5.0818   -1.8033   -6.9478 H         1 <0>         0.1218
     45 H17        -4.6720   -3.0362   -4.8562 H         1 <0>         0.1204
     46 H18         0.2767   -3.4283   -4.2821 H         1 <0>         0.1294
     47 H19         1.6723   -5.4037   -4.7439 H         1 <0>         0.1240
     48 H20         0.7024   -7.6613   -4.5829 H         1 <0>         0.1216
     49 H21        -1.6610   -7.9437   -3.9522 H         1 <0>         0.1230
     50 H22        -3.0541   -5.9687   -3.4813 H         1 <0>         0.1221
     51 O3         -2.1606    1.9381    4.1460 O.co2     1 <0>        -0.7724
@<TRIPOS>BOND
     1    1    6 ar
     2    1    2 ar
     3    1   30 1
     4    2    3 ar
     5    2   31 1
     6    3    4 ar
     7    3   32 1
     8    4    5 ar
     9    4    7 1
    10    5    6 ar
    11    5   33 1
    12    6   34 1
    13    7    8 1
    14    7    9 1
    15    7   12 1
    16    9   10 1
    17    9   35 1
    18    9   36 1
    19   10   11 2
    20   10   51 1
    21   12   13 am
    22   12   37 1
    23   13   14 2
    24   13   15 1
    25   15   16 1
    26   15   38 1
    27   15   39 1
    28   16   17 1
    29   17   18 1
    30   17   24 1
    31   17   40 1
    32   18   23 ar
    33   18   19 ar
    34   19   20 ar
    35   19   41 1
    36   20   21 ar
    37   20   42 1
    38   21   22 ar
    39   21   43 1
    40   22   23 ar
    41   22   44 1
    42   23   45 1
    43   24   29 ar
    44   24   25 ar
    45   25   26 ar
    46   25   46 1
    47   26   27 ar
    48   26   47 1
    49   27   28 ar
    50   27   48 1
    51   28   29 ar
    52   28   49 1
    53   29   50 1
@<TRIPOS>MOLECULE
ZINC40046431
   53    55     0     0     0
SMALL
USER_CHARGES

@<TRIPOS>ATOM
      1 C1          7.5385   -3.4174    0.8796 C.3       1 <0>        -0.1518
      2 C2          6.1571   -4.0605    0.7408 C.3       1 <0>        -0.1205
      3 C3          5.5550   -3.6877   -0.6154 C.3       1 <0>        -0.1208
      4 C4          4.2304   -4.4292   -0.8065 C.3       1 <0>         0.0581
      5 O1          3.7256   -4.1721   -2.1185 O.3       1 <0>        -0.3078
      6 C5          2.4987   -4.6748   -2.4169 C.ar      1 <0>         0.1430
      7 C6          1.8396   -5.4864   -1.5047 C.ar      1 <0>        -0.2150
      8 C7          0.5925   -5.9956   -1.8102 C.ar      1 <0>        -0.0836
      9 C8          0.0008   -5.6971   -3.0239 C.ar      1 <0>        -0.1594
     10 C9          0.6557   -4.8891   -3.9347 C.ar      1 <0>        -0.0507
     11 C10         1.9008   -4.3726   -3.6315 C.ar      1 <0>        -0.1076
     12 C11         2.6114   -3.4868   -4.6222 C.3       1 <0>         0.2587
     13 H1          3.0779   -2.6473   -4.1066 H         1 <0>         0.0758
     14 C12         1.6368   -2.9822   -5.6606 C.2       1 <0>        -0.4888
     15 C13         2.0732   -3.4348   -6.8580 C.2       1 <0>         0.2849
     16 C14         3.3051   -4.2244   -6.6596 C.2       1 <0>         0.5090
     17 O2          3.9372   -4.7646   -7.5457 O.2       1 <0>        -0.5322
     18 N1          3.6252   -4.2574   -5.3519 N.am      1 <0>        -0.6007
     19 C15         4.7795   -4.9400   -4.7620 C.3       1 <0>         0.1405
     20 C16         4.4322   -6.4097   -4.5164 C.3       1 <0>        -0.1388
     21 C17         5.5912   -7.0927   -3.7878 C.3       1 <0>         0.0839
     22 O3          5.2668   -8.4654   -3.5584 O.3       1 <0>        -0.5721
     23 O4          1.4752   -3.2008   -8.0499 O.3       1 <0>        -0.6055
     24 C18         0.4456   -2.1599   -5.4168 C.2       1 <0>         0.4943
     25 O5         -0.3231   -1.9150   -6.3299 O.2       1 <0>        -0.4811
     26 C19         0.1808   -1.6334   -4.0752 C.2       1 <0>        -0.2116
     27 C20        -0.9324   -0.9454   -3.6082 C.2       1 <0>        -0.1203
     28 C21        -0.8927   -0.5753   -2.2868 C.2       1 <0>        -0.1761
     29 C22         0.1977   -0.8953   -1.5442 C.2       1 <0>        -0.2788
     30 S1          1.1997   -1.7153   -2.6146 S.3       1 <0>         0.2225
     31 H2          8.1886   -3.7772    0.0821 H         1 <0>         0.0557
     32 H3          7.4434   -2.3338    0.8098 H         1 <0>         0.0558
     33 H4          7.9674   -3.6830    1.8458 H         1 <0>         0.0542
     34 H5          6.2522   -5.1441    0.8106 H         1 <0>         0.0628
     35 H6          5.5070   -3.7007    1.5382 H         1 <0>         0.0631
     36 H7          5.3781   -2.6127   -0.6513 H         1 <0>         0.0744
     37 H8          6.2466   -3.9687   -1.4097 H         1 <0>         0.0741
     38 H9          4.3923   -5.5000   -0.6829 H         1 <0>         0.0579
     39 H10         3.5099   -4.0827   -0.0656 H         1 <0>         0.0591
     40 H11         2.3014   -5.7200   -0.5568 H         1 <0>         0.1203
     41 H12         0.0792   -6.6276   -1.1006 H         1 <0>         0.1166
     42 H13        -0.9743   -6.0963   -3.2609 H         1 <0>         0.1186
     43 H14         0.1917   -4.6578   -4.8821 H         1 <0>         0.1364
     44 H15         5.6271   -4.8761   -5.4444 H         1 <0>         0.0716
     45 H16         5.0381   -4.4647   -3.8158 H         1 <0>         0.0909
     46 H17         3.5314   -6.4730   -3.9058 H         1 <0>         0.0754
     47 H18         4.2597   -6.9067   -5.4710 H         1 <0>         0.0700
     48 H19         6.4920   -7.0294   -4.3984 H         1 <0>         0.0437
     49 H20         5.7637   -6.5957   -2.8332 H         1 <0>         0.0434
     50 H21         5.9583   -8.9615   -3.0992 H         1 <0>         0.3738
     51 H22        -1.7747   -0.7162   -4.2441 H         1 <0>         0.1398
     52 H23        -1.7175   -0.0367   -1.8441 H         1 <0>         0.1221
     53 H24         0.3780   -0.6767   -0.5020 H         1 <0>         0.1731
@<TRIPOS>BOND
     1    1    2 1
     2    1   31 1
     3    1   32 1
     4    1   33 1
     5    2    3 1
     6    2   34 1
     7    2   35 1
     8    3    4 1
     9    3   36 1
    10    3   37 1
    11    4    5 1
    12    4   38 1
    13    4   39 1
    14    5    6 1
    15    6   11 ar
    16    6    7 ar
    17    7    8 ar
    18    7   40 1
    19    8    9 ar
    20    8   41 1
    21    9   10 ar
    22    9   42 1
    23   10   11 ar
    24   10   43 1
    25   11   12 1
    26   12   13 1
    27   12   18 1
    28   12   14 1
    29   14   15 2
    30   14   24 1
    31   15   16 1
    32   15   23 1
    33   16   17 2
    34   16   18 am
    35   18   19 1
    36   19   20 1
    37   19   44 1
    38   19   45 1
    39   20   21 1
    40   20   46 1
    41   20   47 1
    42   21   22 1
    43   21   48 1
    44   21   49 1
    45   22   50 1
    46   24   25 2
    47   24   26 1
    48   26   30 1
    49   26   27 2
    50   27   28 1
    51   27   51 1
    52   28   29 2
    53   28   52 1
    54   29   30 1
    55   29   53 1
@<TRIPOS>MOLECULE
ZINC40124345
   53    55     0     0     0
SMALL
USER_CHARGES

@<TRIPOS>ATOM
      1 C1         -2.2521    1.1050   -1.1852 C.3       1 <0>        -0.1536
      2 C2         -1.9628   -0.3961   -1.1214 C.3       1 <0>        -0.1234
      3 C3         -0.9767   -0.7729   -2.2289 C.3       1 <0>        -0.1182
      4 C4         -0.6874   -2.2740   -2.1651 C.3       1 <0>        -0.1170
      5 C5          0.2987   -2.6508   -3.2726 C.3       1 <0>         0.0578
      6 O1          0.5690   -4.0528   -3.2130 O.3       1 <0>        -0.3080
      7 C6          1.4330   -4.5548   -4.1354 C.ar      1 <0>         0.0934
      8 C7          2.0123   -3.7152   -5.0733 C.ar      1 <0>        -0.1719
      9 C8          2.8908   -4.2271   -6.0100 C.ar      1 <0>        -0.0834
     10 C9          3.1932   -5.5761   -6.0140 C.ar      1 <0>        -0.0727
     11 C10         2.6184   -6.4192   -5.0813 C.ar      1 <0>        -0.1640
     12 C11         1.7418   -5.9116   -4.1358 C.ar      1 <0>         0.0936
     13 O2          1.1801   -6.7386   -3.2138 O.3       1 <0>        -0.3097
     14 C12         1.6214   -8.0978   -3.2072 C.3       1 <0>         0.0272
     15 C13         4.1512   -6.1288   -7.0376 C.3       1 <0>         0.2639
     16 H1          4.4524   -7.1393   -6.7613 H         1 <0>         0.0709
     17 C14         3.5055   -6.1345   -8.4036 C.2       1 <0>        -0.5042
     18 C15         4.2615   -5.3397   -9.1963 C.2       1 <0>         0.2648
     19 C16         5.3910   -4.8020   -8.4089 C.2       1 <0>         0.5116
     20 O3          6.2476   -4.0552   -8.8386 O.2       1 <0>        -0.5380
     21 N1          5.3307   -5.2621   -7.1447 N.am      1 <0>        -0.7231
     22 O4          4.0219   -5.0792  -10.5021 O.3       1 <0>        -0.6500
     23 C17         2.2935   -6.8609   -8.7948 C.2       1 <0>         0.5021
     24 O5          1.3063   -6.2477   -9.1553 O.2       1 <0>        -0.4705
     25 C18         2.2709   -8.3375   -8.7515 C.ar      1 <0>        -0.1451
     26 C19         3.4350   -9.0480   -8.4471 C.ar      1 <0>        -0.0395
     27 C20         3.4081  -10.4252   -8.4081 C.ar      1 <0>        -0.1696
     28 C21         2.2287  -11.1061   -8.6707 C.ar      1 <0>         0.1062
     29 C22         1.0703  -10.4060   -8.9734 C.ar      1 <0>        -0.1685
     30 C23         1.0841   -9.0285   -9.0091 C.ar      1 <0>        -0.0475
     31 F1          2.2083  -12.4564   -8.6320 F         1 <0>        -0.1436
     32 H2         -1.3239    1.6600   -1.0496 H         1 <0>         0.0537
     33 H3         -2.6840    1.3508   -2.1554 H         1 <0>         0.0542
     34 H4         -2.9546    1.3734   -0.3962 H         1 <0>         0.0531
     35 H5         -1.5309   -0.6419   -0.1513 H         1 <0>         0.0620
     36 H6         -2.8910   -0.9511   -1.2571 H         1 <0>         0.0626
     37 H7         -1.4085   -0.5271   -3.1990 H         1 <0>         0.0656
     38 H8         -0.0484   -0.2179   -2.0932 H         1 <0>         0.0647
     39 H9         -0.2555   -2.5198   -1.1949 H         1 <0>         0.0719
     40 H10        -1.6156   -2.8290   -2.3007 H         1 <0>         0.0728
     41 H11        -0.1331   -2.4050   -4.2427 H         1 <0>         0.0605
     42 H12         1.2270   -2.0958   -3.1369 H         1 <0>         0.0588
     43 H13         1.7772   -2.6611   -5.0728 H         1 <0>         0.1303
     44 H14         3.3417   -3.5717   -6.7404 H         1 <0>         0.1238
     45 H15         2.8560   -7.4727   -5.0868 H         1 <0>         0.1328
     46 H16         2.6924   -8.1311   -3.0075 H         1 <0>         0.0526
     47 H17         1.0898   -8.6486   -2.4313 H         1 <0>         0.0954
     48 H18         1.4185   -8.5503   -4.1779 H         1 <0>         0.0543
     49 H19         5.9553   -5.0575   -6.4313 H         1 <0>         0.4069
     50 H20         4.3541   -8.5188   -8.2432 H         1 <0>         0.1448
     51 H21         4.3072  -10.9754   -8.1730 H         1 <0>         0.1355
     52 H22         0.1547  -10.9414   -9.1774 H         1 <0>         0.1344
     53 H23         0.1804   -8.4842   -9.2404 H         1 <0>         0.1395
@<TRIPOS>BOND
     1    1    2 1
     2    1   32 1
     3    1   33 1
     4    1   34 1
     5    2    3 1
     6    2   35 1
     7    2   36 1
     8    3    4 1
     9    3   37 1
    10    3   38 1
    11    4    5 1
    12    4   39 1
    13    4   40 1
    14    5    6 1
    15    5   41 1
    16    5   42 1
    17    6    7 1
    18    7   12 ar
    19    7    8 ar
    20    8    9 ar
    21    8   43 1
    22    9   10 ar
    23    9   44 1
    24   10   11 ar
    25   10   15 1
    26   11   12 ar
    27   11   45 1
    28   12   13 1
    29   13   14 1
    30   14   46 1
    31   14   47 1
    32   14   48 1
    33   15   16 1
    34   15   21 1
    35   15   17 1
    36   17   18 2
    37   17   23 1
    38   18   19 1
    39   18   22 1
    40   19   20 2
    41   19   21 am
    42   21   49 1
    43   23   24 2
    44   23   25 1
    45   25   30 ar
    46   25   26 ar
    47   26   27 ar
    48   26   50 1
    49   27   28 ar
    50   27   51 1
    51   28   29 ar
    52   28   31 1
    53   29   30 ar
    54   29   52 1
    55   30   53 1
@<TRIPOS>MOLECULE
ZINC56878330
   51    52     0     0     0
SMALL
USER_CHARGES

@<TRIPOS>ATOM
      1 C1          0.1058    1.4257    0.0742 C.3       1 <0>        -0.0732
      2 C2          0.1243   -0.0810    0.0505 C.2       1 <0>         0.1088
      3 C3          0.1094   -0.7702   -1.1157 C.2       1 <0>        -0.2693
      4 S1          0.1427   -2.4498   -0.5113 S.3       1 <0>         0.0060
      5 C4          0.1715   -2.1044    1.1356 C.2       1 <0>         0.2778
      6 S2          0.2134   -3.2307    2.4901 S.3       1 <0>        -0.7524
      7 N1          0.1612   -0.7880    1.1660 N.2       1 <0>        -0.5747
      8 C5          0.0741   -0.2596   -2.5331 C.3       1 <0>        -0.0248
      9 C6          1.4827   -0.0711   -3.0345 C.2       1 <0>         0.5089
     10 O1          2.4227   -0.3263   -2.3119 O.2       1 <0>        -0.5157
     11 N2          1.6978    0.3810   -4.2858 N.am      1 <0>        -0.7396
     12 C7          3.0671    0.5642   -4.7731 C.3       1 <0>         0.1241
     13 C8          3.0312    1.0826   -6.2122 C.3       1 <0>        -0.1505
     14 C9          4.4613    1.2740   -6.7212 C.3       1 <0>         0.1299
     15 N3          4.4269    1.7703   -8.0991 N.am      1 <0>        -0.5679
     16 C10         4.4031    3.2121   -8.3580 C.3       1 <0>         0.0735
     17 C11         4.4816    4.1480   -7.1502 C.3       1 <0>        -0.1825
     18 C12         3.1636    3.9897   -7.9110 C.3       1 <0>        -0.1917
     19 C13         4.4172    0.9006   -9.1286 C.2       1 <0>         0.6562
     20 O2          4.3442   -0.2933   -8.9147 O.2       1 <0>        -0.5578
     21 O3          4.4884    1.3546  -10.3941 O.3       1 <0>        -0.3547
     22 C14         4.4732    0.3767  -11.4360 C.3       1 <0>         0.1335
     23 C15         3.1745   -0.4287  -11.3607 C.3       1 <0>        -0.1857
     24 C16         4.5612    1.0766  -12.7937 C.3       1 <0>        -0.1393
     25 C17         5.6676   -0.5648  -11.2693 C.3       1 <0>        -0.1862
     26 H1          1.1286    1.8019    0.0547 H         1 <0>         0.0641
     27 H2         -0.4344    1.7962   -0.7970 H         1 <0>         0.0599
     28 H3         -0.3902    1.7687    0.9822 H         1 <0>         0.0656
     29 H4         -0.4435   -0.9803   -3.1661 H         1 <0>         0.0957
     30 H5         -0.4528    0.6942   -2.5627 H         1 <0>         0.1015
     31 H6          0.9459    0.5851   -4.8637 H         1 <0>         0.3977
     32 H7          3.5847    1.2850   -4.1401 H         1 <0>         0.0666
     33 H8          3.5940   -0.3895   -4.7436 H         1 <0>         0.0687
     34 H9          2.5137    0.3618   -6.8452 H         1 <0>         0.0772
     35 H10         2.5044    2.0364   -6.2418 H         1 <0>         0.0733
     36 H11         4.9789    1.9947   -6.0882 H         1 <0>         0.0915
     37 H12         4.9882    0.3202   -6.6916 H         1 <0>         0.0939
     38 H13         4.8944    3.5330   -9.2765 H         1 <0>         0.1337
     39 H14         4.5509    3.6911   -6.1630 H         1 <0>         0.1049
     40 H15         5.0247    5.0849   -7.2740 H         1 <0>         0.1065
     41 H16         2.8397    4.8224   -8.5353 H         1 <0>         0.1027
     42 H17         2.3658    3.4286   -7.4243 H         1 <0>         0.1005
     43 H18         2.3236    0.2420  -11.4795 H         1 <0>         0.0588
     44 H19         3.1630   -1.1746  -12.1554 H         1 <0>         0.0693
     45 H20         3.1119   -0.9273  -10.3934 H         1 <0>         0.0880
     46 H21         5.4864    1.6504  -12.8474 H         1 <0>         0.0656
     47 H22         4.5496    0.3307  -13.5884 H         1 <0>         0.0797
     48 H23         3.7103    1.7473  -12.9125 H         1 <0>         0.0661
     49 H24         5.6050   -1.0634  -10.3020 H         1 <0>         0.0881
     50 H25         5.6561   -1.3107  -12.0640 H         1 <0>         0.0694
     51 H26         6.5928    0.0090  -11.3230 H         1 <0>         0.0584
@<TRIPOS>BOND
     1    1    2 1
     2    1   26 1
     3    1   27 1
     4    1   28 1
     5    2    7 1
     6    2    3 2
     7    3    4 1
     8    3    8 1
     9    4    5 1
    10    5    6 1
    11    5    7 2
    12    8    9 1
    13    8   29 1
    14    8   30 1
    15    9   10 2
    16    9   11 am
    17   11   12 1
    18   11   31 1
    19   12   13 1
    20   12   32 1
    21   12   33 1
    22   13   14 1
    23   13   34 1
    24   13   35 1
    25   14   15 1
    26   14   36 1
    27   14   37 1
    28   15   16 1
    29   15   19 am
    30   16   18 1
    31   16   17 1
    32   16   38 1
    33   17   18 1
    34   17   39 1
    35   17   40 1
    36   18   41 1
    37   18   42 1
    38   19   20 2
    39   19   21 1
    40   21   22 1
    41   22   23 1
    42   22   24 1
    43   22   25 1
    44   23   43 1
    45   23   44 1
    46   23   45 1
    47   24   46 1
    48   24   47 1
    49   24   48 1
    50   25   49 1
    51   25   50 1
    52   25   51 1
@<TRIPOS>MOLECULE
ZINC62216242
   51    52     0     0     0
SMALL
USER_CHARGES

@<TRIPOS>ATOM
      1 C1          3.7776   -2.1968   -3.6074 C.3       1 <0>        -0.1521
      2 C2          3.0519   -2.0709   -2.2664 C.3       1 <0>        -0.1243
      3 C3          1.6254   -2.6061   -2.4063 C.3       1 <0>        -0.1120
      4 C4          0.8601   -2.3647   -1.1036 C.3       1 <0>        -0.0345
      5 H1          0.9122   -1.3079   -0.8420 H         1 <0>         0.0919
      6 C5         -0.6029   -2.7728   -1.2884 C.3       1 <0>        -0.1360
      7 C6         -1.3885   -2.3966   -0.0587 C.2       1 <0>         0.5070
      8 O1         -0.8579   -1.7645    0.8301 O.2       1 <0>        -0.5323
      9 N1         -2.6808   -2.7625    0.0534 N.am      1 <0>        -0.7239
     10 C7         -3.4446   -2.3968    1.2489 C.3       1 <0>         0.1337
     11 C8         -4.8734   -2.9296    1.1240 C.3       1 <0>        -0.6188
     12 S1         -5.8191   -2.4768    2.6043 S.o2      1 <0>         2.5320
     13 O2         -5.3214   -3.1770    3.7362 O.2       1 <0>        -1.0227
     14 O3         -6.0123   -1.0698    2.6502 O.2       1 <0>        -1.0231
     15 N2         -7.3311   -3.1030    2.3513 N.2       1 <0>        -1.0997
     16 C9         -8.3277   -2.9330    3.3151 C.ar      1 <0>         0.2791
     17 C10        -8.0537   -2.2339    4.4839 C.ar      1 <0>        -0.2587
     18 C11        -9.0414   -2.0673    5.4346 C.ar      1 <0>        -0.0713
     19 C12       -10.3019   -2.5957    5.2243 C.ar      1 <0>        -0.2291
     20 C13       -10.5780   -3.2921    4.0620 C.ar      1 <0>        -0.0836
     21 C14        -9.5965   -3.4576    3.1046 C.ar      1 <0>        -0.1872
     22 C15         1.4752   -3.1863   -0.0000 C.ar      1 <0>        -0.0754
     23 C16         1.5286   -4.5632   -0.1117 C.ar      1 <0>        -0.0933
     24 C17         2.0928   -5.3176    0.8994 C.ar      1 <0>        -0.1554
     25 C18         2.6047   -4.6939    2.0246 C.ar      1 <0>         0.0906
     26 C19         2.5506   -3.3148    2.1354 C.ar      1 <0>        -0.1536
     27 C20         1.9906   -2.5621    1.1206 C.ar      1 <0>        -0.0610
     28 F1          3.1561   -5.4304    3.0139 F         1 <0>        -0.1436
     29 H2          3.8103   -3.2446   -3.9058 H         1 <0>         0.0525
     30 H3          3.2457   -1.6199   -4.3639 H         1 <0>         0.0530
     31 H4          4.7939   -1.8156   -3.5077 H         1 <0>         0.0522
     32 H5          3.5838   -2.6478   -1.5098 H         1 <0>         0.0634
     33 H6          3.0192   -1.0231   -1.9679 H         1 <0>         0.0623
     34 H7          1.1223   -2.0901   -3.2241 H         1 <0>         0.0683
     35 H8          1.6574   -3.6752   -2.6161 H         1 <0>         0.0658
     36 H9         -1.0168   -2.2582   -2.1556 H         1 <0>         0.1002
     37 H10        -0.6629   -3.8502   -1.4424 H         1 <0>         0.0939
     38 H11        -3.1052   -3.2680   -0.6574 H         1 <0>         0.4019
     39 H12        -2.9708   -2.8305    2.1295 H         1 <0>         0.0775
     40 H13        -3.4688   -1.3115    1.3467 H         1 <0>         0.0781
     41 H14        -5.3472   -2.4960    0.2434 H         1 <0>         0.1273
     42 H15        -4.8491   -4.0150    1.0263 H         1 <0>         0.1271
     43 H16        -7.0693   -1.8216    4.6491 H         1 <0>         0.0991
     44 H17        -8.8291   -1.5239    6.3435 H         1 <0>         0.0996
     45 H18       -11.0724   -2.4646    5.9697 H         1 <0>         0.0990
     46 H19       -11.5635   -3.7036    3.9008 H         1 <0>         0.1025
     47 H20        -9.8141   -3.9977    2.1950 H         1 <0>         0.1091
     48 H21         1.1290   -5.0495   -0.9893 H         1 <0>         0.1283
     49 H22         2.1342   -6.3933    0.8121 H         1 <0>         0.1317
     50 H23         2.9492   -2.8273    3.0127 H         1 <0>         0.1325
     51 H24         1.9523   -1.4861    1.2047 H         1 <0>         0.1319
@<TRIPOS>BOND
     1    1    2 1
     2    1   29 1
     3    1   30 1
     4    1   31 1
     5    2    3 1
     6    2   32 1
     7    2   33 1
     8    3    4 1
     9    3   34 1
    10    3   35 1
    11    4    5 1
    12    4    6 1
    13    4   22 1
    14    6    7 1
    15    6   36 1
    16    6   37 1
    17    7    8 2
    18    7    9 am
    19    9   10 1
    20    9   38 1
    21   10   11 1
    22   10   39 1
    23   10   40 1
    24   11   12 1
    25   11   41 1
    26   11   42 1
    27   12   13 2
    28   12   14 2
    29   12   15 1
    30   15   16 1
    31   16   21 ar
    32   16   17 ar
    33   17   18 ar
    34   17   43 1
    35   18   19 ar
    36   18   44 1
    37   19   20 ar
    38   19   45 1
    39   20   21 ar
    40   20   46 1
    41   21   47 1
    42   22   27 ar
    43   22   23 ar
    44   23   24 ar
    45   23   48 1
    46   24   25 ar
    47   24   49 1
    48   25   26 ar
    49   25   28 1
    50   26   27 ar
    51   26   50 1
    52   27   51 1
@<TRIPOS>MOLECULE
ZINC01281861
   48    50     0     0     0
SMALL
USER_CHARGES
isopropyl 2-[7-(2,4-dimethylphenyl)-5-oxo-9-thia-2,4-diazabicyclo[4.3.0]nona-2,7,10-trien-4-yl]propanoate
@<TRIPOS>ATOM
      1 C1          1.7065    8.0084    5.5771 C.3       1 <0>        -0.1157
      2 C2          1.7307    6.5016    5.5751 C.ar      1 <0>        -0.0757
      3 C3          2.9357    5.8319    5.4580 C.ar      1 <0>        -0.1291
      4 C4          2.9641    4.4525    5.4556 C.ar      1 <0>        -0.0935
      5 C5          1.7751    3.7332    5.5715 C.ar      1 <0>        -0.0442
      6 C6          0.5635    4.4134    5.6834 C.ar      1 <0>        -0.0344
      7 C7          0.5481    5.7935    5.6900 C.ar      1 <0>        -0.1219
      8 C8         -0.7265    3.6434    5.8024 C.3       1 <0>        -0.1116
      9 C9          1.7989    2.2511    5.5696 C.2       1 <0>        -0.0104
     10 C10         2.4023    1.5691    6.5729 C.2       1 <0>        -0.1810
     11 S1          2.1606   -0.1368    6.1159 S.3       1 <0>         0.1553
     12 C11         1.2641    0.1029    4.6037 C.2       1 <0>         0.1057
     13 C12         1.1730    1.4995    4.4883 C.2       1 <0>        -0.2387
     14 C13         0.4825    1.9822    3.3310 C.2       1 <0>         0.5554
     15 O1          0.3522    3.1795    3.1427 O.2       1 <0>        -0.5016
     16 N1         -0.0203    1.0939    2.4537 N.am      1 <0>        -0.5207
     17 C14         0.1114   -0.2430    2.6498 C.2       1 <0>         0.4083
     18 N2          0.7405   -0.7137    3.6931 N.2       1 <0>        -0.4877
     19 C15        -0.7288    1.5792    1.2668 C.3       1 <0>         0.1238
     20 H1         -0.7436    2.6691    1.2728 H         1 <0>         0.1572
     21 C16        -0.0127    1.0858    0.0080 C.3       1 <0>        -0.1600
     22 C17        -2.1427    1.0576    1.2775 C.2       1 <0>         0.4564
     23 O2         -2.5197    0.3528    2.1836 O.2       1 <0>        -0.4939
     24 O3         -2.9830    1.3760    0.2805 O.3       1 <0>        -0.3412
     25 C18        -4.3296    0.8381    0.3563 C.3       1 <0>         0.0814
     26 C19        -5.2280    1.8173    1.1145 C.3       1 <0>        -0.1728
     27 C20        -4.8774    0.6335   -1.0576 C.3       1 <0>        -0.1510
     28 H2          1.6011    8.3714    4.5548 H         1 <0>         0.0705
     29 H3          0.8648    8.3575    6.1753 H         1 <0>         0.0657
     30 H4          2.6361    8.3861    6.0028 H         1 <0>         0.0664
     31 H5          3.8560    6.3900    5.3686 H         1 <0>         0.1220
     32 H6          3.9053    3.9308    5.3644 H         1 <0>         0.1211
     33 H7         -0.3897    6.3216    5.7804 H         1 <0>         0.1203
     34 H8         -0.9430    3.4576    6.8544 H         1 <0>         0.0672
     35 H9         -1.5375    4.2228    5.3613 H         1 <0>         0.0639
     36 H10        -0.6319    2.6928    5.2775 H         1 <0>         0.0608
     37 H11         2.9086    1.9643    7.4412 H         1 <0>         0.1993
     38 H12        -0.3078   -0.9291    1.9286 H         1 <0>         0.2097
     39 H13         0.0021   -0.0041    0.0020 H         1 <0>         0.0724
     40 H14         1.0099    1.4631    0.0003 H         1 <0>         0.0854
     41 H15        -0.5399    1.4469   -0.8751 H         1 <0>         0.0995
     42 H16        -4.3102   -0.1175    0.8802 H         1 <0>         0.0886
     43 H17        -5.2474    2.7729    0.5905 H         1 <0>         0.0692
     44 H18        -6.2389    1.4135    1.1714 H         1 <0>         0.0793
     45 H19        -4.8378    1.9631    2.1218 H         1 <0>         0.0609
     46 H20        -4.2373   -0.0641   -1.5978 H         1 <0>         0.0669
     47 H21        -5.8882    0.2297   -1.0007 H         1 <0>         0.0823
     48 H22        -4.8968    1.5891   -1.5816 H         1 <0>         0.0704
@<TRIPOS>BOND
     1    1    2 1
     2    1   28 1
     3    1   29 1
     4    1   30 1
     5    2    7 ar
     6    2    3 ar
     7    3    4 ar
     8    3   31 1
     9    4    5 ar
    10    4   32 1
    11    5    6 ar
    12    5    9 1
    13    6    7 ar
    14    6    8 1
    15    7   33 1
    16    8   34 1
    17    8   35 1
    18    8   36 1
    19    9   13 1
    20    9   10 2
    21   10   11 1
    22   10   37 1
    23   11   12 1
    24   12   18 1
    25   12   13 2
    26   13   14 1
    27   14   15 2
    28   14   16 am
    29   16   17 1
    30   16   19 1
    31   17   18 2
    32   17   38 1
    33   19   20 1
    34   19   21 1
    35   19   22 1
    36   21   39 1
    37   21   40 1
    38   21   41 1
    39   22   23 2
    40   22   24 1
    41   24   25 1
    42   25   26 1
    43   25   27 1
    44   25   42 1
    45   26   43 1
    46   26   44 1
    47   26   45 1
    48   27   46 1
    49   27   47 1
    50   27   48 1
@<TRIPOS>MOLECULE
ZINC20993188
   36    38     0     0     0
SMALL
USER_CHARGES
(2S)-1-(3-chlorophenyl)-2-[1-(4-chlorophenyl)tetrazol-5-yl]sulfanyl-propan-1-one
@<TRIPOS>ATOM
      1 C1          0.1019    4.2140   -1.2829 C.3       1 <0>        -0.1530
      2 C2         -0.6621    4.0118    0.0271 C.3       1 <0>        -0.1601
      3 H1          0.0613    4.2555    0.8191 H         1 <0>         0.1405
      4 C3         -1.7190    5.0775    0.1619 C.2       1 <0>         0.4199
      5 O1         -2.8550    4.8539   -0.1983 O.2       1 <0>        -0.4265
      6 C4         -1.3723    6.3898    0.7309 C.ar      1 <0>        -0.1528
      7 C5         -2.3505    7.3815    0.8576 C.ar      1 <0>        -0.0509
      8 C6         -2.0187    8.6084    1.3919 C.ar      1 <0>        -0.1150
      9 C7         -0.7214    8.8607    1.8027 C.ar      1 <0>        -0.0729
     10 C8          0.2533    7.8844    1.6808 C.ar      1 <0>        -0.0466
     11 C9         -0.0648    6.6494    1.1527 C.ar      1 <0>        -0.0668
     12 Cl1         1.8774    8.2125    2.1990 Cl        1 <0>        -0.0542
     13 S1         -1.4471    2.3808    0.0221 S.3       1 <0>         0.1262
     14 C10        -0.0163    1.3526    0.0095 C.2       1 <0>         0.2077
     15 N1          1.2362    1.7552   -0.0003 N.2       1 <0>        -0.3235
     16 N2          2.0326    0.7479   -0.0133 N.2       1 <0>        -0.0199
     17 N3          1.3637   -0.3539   -0.0129 N.2       1 <0>        -0.0652
     18 N4          0.0021   -0.0041    0.0020 N.pl3     1 <0>        -0.3156
     19 C11        -1.1003   -0.8711    0.0079 C.ar      1 <0>         0.1244
     20 C12        -2.2465   -0.5335    0.7146 C.ar      1 <0>        -0.1014
     21 C13        -3.3329   -1.3863    0.7142 C.ar      1 <0>        -0.0840
     22 C14        -3.2753   -2.5818    0.0194 C.ar      1 <0>        -0.0222
     23 C15        -2.1317   -2.9230   -0.6811 C.ar      1 <0>        -0.0895
     24 C16        -1.0449   -2.0709   -0.6884 C.ar      1 <0>        -0.0787
     25 Cl2        -4.6396   -3.6552    0.0271 Cl        1 <0>        -0.0474
     26 H2          0.8734    3.4361   -1.3812 H         1 <0>         0.0934
     27 H3          0.5789    5.2052   -1.2799 H         1 <0>         0.0810
     28 H4         -0.5973    4.1461   -2.1294 H         1 <0>         0.0739
     29 H5         -3.3634    7.1867    0.5373 H         1 <0>         0.1443
     30 H6         -2.7734    9.3747    1.4905 H         1 <0>         0.1442
     31 H7         -0.4679    9.8237    2.2208 H         1 <0>         0.1426
     32 H8          0.6949    5.8873    1.0619 H         1 <0>         0.1457
     33 H9         -2.2903    0.3972    1.2606 H         1 <0>         0.1477
     34 H10        -4.2264   -1.1223    1.2605 H         1 <0>         0.1533
     35 H11        -2.0889   -3.8567   -1.2223 H         1 <0>         0.1519
     36 H12        -0.1525   -2.3378   -1.2349 H         1 <0>         0.1494
@<TRIPOS>BOND
     1    1    2 1
     2    1   26 1
     3    1   27 1
     4    1   28 1
     5    2    3 1
     6    2    4 1
     7    2   13 1
     8    4    5 2
     9    4    6 1
    10    6   11 ar
    11    6    7 ar
    12    7    8 ar
    13    7   29 1
    14    8    9 ar
    15    8   30 1
    16    9   10 ar
    17    9   31 1
    18   10   11 ar
    19   10   12 1
    20   11   32 1
    21   13   14 1
    22   14   18 1
    23   14   15 2
    24   15   16 1
    25   16   17 2
    26   17   18 1
    27   18   19 1
    28   19   24 ar
    29   19   20 ar
    30   20   21 ar
    31   20   33 1
    32   21   22 ar
    33   21   34 1
    34   22   23 ar
    35   22   25 1
    36   23   24 ar
    37   23   35 1
    38   24   36 1
@<TRIPOS>MOLECULE
ZINC33700622
   44    46     0     0     0
SMALL
USER_CHARGES
[4-[(E)-3-(4-chlorophenyl)-3-oxo-prop-1-enyl]phenyl] morpholine-4-carboxylate
@<TRIPOS>ATOM
      1 C1          0.8313   -4.2176    5.6470 C.ar      1 <0>        -0.0739
      2 C2          1.3961   -3.2466    4.8515 C.ar      1 <0>        -0.1159
      3 C3          0.7007   -2.7524    3.7538 C.ar      1 <0>         0.1163
      4 C4         -0.5698   -3.2319    3.4560 C.ar      1 <0>        -0.1181
      5 C5         -1.1417   -4.2070    4.2414 C.ar      1 <0>        -0.0818
      6 C6         -0.4460   -4.7080    5.3486 C.ar      1 <0>        -0.0800
      7 C7         -1.0540   -5.7440    6.1943 C.2       1 <0>         0.0024
      8 C8         -2.2876   -6.2159    5.9039 C.2       1 <0>        -0.2466
      9 C9         -2.8745   -7.2159    6.7202 C.2       1 <0>         0.4269
     10 O1         -2.2678   -7.6497    7.6826 O.2       1 <0>        -0.4573
     11 C10        -4.2234   -7.7318    6.4027 C.ar      1 <0>        -0.1576
     12 C11        -4.9240   -7.2322    5.3029 C.ar      1 <0>        -0.0627
     13 C12        -6.1789   -7.7217    5.0083 C.ar      1 <0>        -0.1229
     14 C13        -6.7499   -8.6983    5.8079 C.ar      1 <0>        -0.0082
     15 C14        -6.0620   -9.1938    6.9035 C.ar      1 <0>        -0.1215
     16 C15        -4.8040   -8.7166    7.2047 C.ar      1 <0>        -0.0501
     17 Cl1        -8.3334   -9.3041    5.4350 Cl        1 <0>        -0.0593
     18 O2          1.2621   -1.7939    2.9729 O.3       1 <0>        -0.3034
     19 C16         2.2096   -2.1920    2.1021 C.2       1 <0>         0.6495
     20 O3          2.5894   -3.3462    2.1032 O.2       1 <0>        -0.5496
     21 N1          2.7364   -1.3101    1.2297 N.am      1 <0>        -0.5952
     22 C17         3.7725   -1.7215    0.2692 C.3       1 <0>         0.0889
     23 C18         3.3466   -1.2591   -1.1290 C.3       1 <0>         0.0457
     24 O4          3.0359    0.1358   -1.0890 O.3       1 <0>        -0.3758
     25 C19         1.9384    0.4667   -0.2347 C.3       1 <0>         0.0454
     26 C20         2.2921    0.0926    1.2092 C.3       1 <0>         0.0718
     27 H1          1.3720   -4.6003    6.4999 H         1 <0>         0.1398
     28 H2          2.3811   -2.8677    5.0807 H         1 <0>         0.1342
     29 H3         -1.1073   -2.8416    2.6045 H         1 <0>         0.1365
     30 H4         -2.1271   -4.5818    4.0068 H         1 <0>         0.1389
     31 H5         -0.5058   -6.1359    7.0637 H         1 <0>         0.1445
     32 H6         -2.8358   -5.8240    5.0344 H         1 <0>         0.1379
     33 H7         -4.4821   -6.4671    4.6819 H         1 <0>         0.1410
     34 H8         -6.7198   -7.3395    4.1552 H         1 <0>         0.1412
     35 H9         -6.5119   -9.9556    7.5228 H         1 <0>         0.1413
     36 H10        -4.2685   -9.1038    8.0589 H         1 <0>         0.1445
     37 H11         4.7315   -1.2576    0.5433 H         1 <0>         0.0860
     38 H12         3.8762   -2.8164    0.2883 H         1 <0>         0.1090
     39 H13         4.1683   -1.4339   -1.8391 H         1 <0>         0.1158
     40 H14         2.4594   -1.8257   -1.4482 H         1 <0>         0.0600
     41 H15         1.7375    1.5464   -0.2974 H         1 <0>         0.1138
     42 H16         1.0453   -0.0915   -0.5522 H         1 <0>         0.0592
     43 H17         1.4089    0.2069    1.8548 H         1 <0>         0.1042
     44 H18         3.1020    0.7392    1.5780 H         1 <0>         0.0852
@<TRIPOS>BOND
     1    1    6 ar
     2    1    2 ar
     3    1   27 1
     4    2    3 ar
     5    2   28 1
     6    3    4 ar
     7    3   18 1
     8    4    5 ar
     9    4   29 1
    10    5    6 ar
    11    5   30 1
    12    6    7 1
    13    7    8 2
    14    7   31 1
    15    8    9 1
    16    8   32 1
    17    9   10 2
    18    9   11 1
    19   11   16 ar
    20   11   12 ar
    21   12   13 ar
    22   12   33 1
    23   13   14 ar
    24   13   34 1
    25   14   15 ar
    26   14   17 1
    27   15   16 ar
    28   15   35 1
    29   16   36 1
    30   18   19 1
    31   19   20 2
    32   19   21 am
    33   21   26 1
    34   21   22 1
    35   22   23 1
    36   22   37 1
    37   22   38 1
    38   23   24 1
    39   23   39 1
    40   23   40 1
    41   24   25 1
    42   25   26 1
    43   25   41 1
    44   25   42 1
    45   26   43 1
    46   26   44 1
@<TRIPOS>MOLECULE
ZINC48864561
   46    48     0     0     0
SMALL
USER_CHARGES

@<TRIPOS>ATOM
      1 C1         -4.2101   -0.7974   -0.3513 C.3       1 <0>        -0.1161
      2 C2         -2.7740   -1.1213   -0.0292 C.ar      1 <0>        -0.0760
      3 C3         -1.7666   -0.7240   -0.8893 C.ar      1 <0>        -0.1079
      4 C4         -0.4481   -1.0191   -0.5965 C.ar      1 <0>        -0.0985
      5 C5         -0.1337   -1.7124    0.5565 C.ar      1 <0>        -0.0775
      6 C6         -1.1424   -2.1120    1.4209 C.ar      1 <0>         0.0833
      7 C7         -2.4646   -1.8096    1.1276 C.ar      1 <0>        -0.1117
      8 O1         -0.8358   -2.7941    2.5557 O.3       1 <0>        -0.2723
      9 C8         -0.4619   -2.0849    3.6386 C.2       1 <0>         0.5388
     10 O2         -0.4973   -0.8708    3.6114 O.2       1 <0>        -0.4662
     11 C9         -0.0090   -2.7835    4.8589 C.2       1 <0>         0.0351
     12 C10         0.3778   -2.0364    5.9974 C.2       1 <0>        -0.0340
     13 C11         0.7898   -2.7162    7.1057 C.2       1 <0>        -0.1753
     14 C12         0.8052   -4.1267    7.0492 C.2       1 <0>         0.4803
     15 O3          1.1659   -4.7759    8.0168 O.2       1 <0>        -0.4952
     16 N1          0.4189   -4.7507    5.9208 N.am      1 <0>        -0.2820
     17 N2          0.0285   -4.0981    4.8863 N.2       1 <0>        -0.1436
     18 C13         0.4381   -6.1486    5.8758 C.ar      1 <0>         0.0928
     19 C14         1.0485   -6.8022    4.8126 C.ar      1 <0>        -0.0592
     20 C15         1.0662   -8.1821    4.7703 C.ar      1 <0>        -0.1438
     21 C16         0.4757   -8.9148    5.7866 C.ar      1 <0>         0.1214
     22 C17        -0.1334   -8.2654    6.8477 C.ar      1 <0>        -0.1419
     23 C18        -0.1482   -6.8857    6.8973 C.ar      1 <0>        -0.0511
     24 F1          0.4935  -10.2650    5.7428 F         1 <0>        -0.1295
     25 C19         1.3036   -2.0346    0.8746 C.3       1 <0>        -0.0594
     26 C20         1.8935   -2.8940   -0.2455 C.3       1 <0>        -0.1420
     27 C21         2.1028   -0.7355    0.9954 C.3       1 <0>        -0.1462
     28 H1         -4.4692    0.1707    0.0774 H         1 <0>         0.0743
     29 H2         -4.3410   -0.7627   -1.4328 H         1 <0>         0.0709
     30 H3         -4.8589   -1.5661    0.0687 H         1 <0>         0.0688
     31 H4         -2.0103   -0.1826   -1.7914 H         1 <0>         0.1299
     32 H5          0.3368   -0.7077   -1.2698 H         1 <0>         0.1318
     33 H6         -3.2513   -2.1157    1.8012 H         1 <0>         0.1311
     34 H7          0.3478   -0.9569    5.9886 H         1 <0>         0.1711
     35 H8          1.0952   -2.1916    7.9990 H         1 <0>         0.1807
     36 H9          1.5084   -6.2313    4.0196 H         1 <0>         0.1445
     37 H10         1.5406   -8.6905    3.9439 H         1 <0>         0.1504
     38 H11        -0.5932   -8.8387    7.6391 H         1 <0>         0.1504
     39 H12        -0.6190   -6.3797    7.7271 H         1 <0>         0.1432
     40 H13         1.3537   -2.5809    1.8164 H         1 <0>         0.0724
     41 H14         1.3242   -3.8195   -0.3315 H         1 <0>         0.0584
     42 H15         1.8435   -2.3477   -1.1873 H         1 <0>         0.0594
     43 H16         2.9332   -3.1270   -0.0154 H         1 <0>         0.0607
     44 H17         1.6826   -0.1233    1.7933 H         1 <0>         0.0590
     45 H18         3.1425   -0.9686    1.2254 H         1 <0>         0.0603
     46 H19         2.0528   -0.1892    0.0535 H         1 <0>         0.0601
@<TRIPOS>BOND
     1    1    2 1
     2    1   28 1
     3    1   29 1
     4    1   30 1
     5    2    7 ar
     6    2    3 ar
     7    3    4 ar
     8    3   31 1
     9    4    5 ar
    10    4   32 1
    11    5    6 ar
    12    5   25 1
    13    6    7 ar
    14    6    8 1
    15    7   33 1
    16    8    9 1
    17    9   10 2
    18    9   11 1
    19   11   17 2
    20   11   12 1
    21   12   13 2
    22   12   34 1
    23   13   14 1
    24   13   35 1
    25   14   15 2
    26   14   16 am
    27   16   17 1
    28   16   18 1
    29   18   23 ar
    30   18   19 ar
    31   19   20 ar
    32   19   36 1
    33   20   21 ar
    34   20   37 1
    35   21   22 ar
    36   21   24 1
    37   22   23 ar
    38   22   38 1
    39   23   39 1
    40   25   26 1
    41   25   27 1
    42   25   40 1
    43   26   41 1
    44   26   42 1
    45   26   43 1
    46   27   44 1
    47   27   45 1
    48   27   46 1
@<TRIPOS>MOLECULE
ZINC11679494
   48    51     0     0     0
SMALL
USER_CHARGES

@<TRIPOS>ATOM
      1 C1         -0.0178    1.4608    0.0101 C.3       1 <0>         0.1077
      2 N1          0.0021   -0.0041    0.0020 N.pl3     1 <0>        -0.3788
      3 C2          0.0079   -0.7968   -1.1069 C.ar      1 <0>         0.3541
      4 C3          0.0289   -2.1283   -0.6482 C.ar      1 <0>        -0.2655
      5 C4          0.0351   -2.0798    0.7623 C.2       1 <0>         0.1066
      6 N2          0.0245   -0.8309    1.1323 N.2       1 <0>        -0.2361
      7 C5          0.0392   -3.1632   -1.6042 C.ar      1 <0>         0.2370
      8 N3          0.0286   -2.8335   -2.8921 N.ar      1 <0>        -0.5607
      9 C6          0.0089   -1.5691   -3.2742 C.ar      1 <0>         0.3612
     10 N4         -0.0018   -0.5695   -2.4195 N.ar      1 <0>        -0.5409
     11 S1          0.0661   -4.8529   -1.1051 S.3       1 <0>         0.0353
     12 C7          0.0718   -5.7723   -2.6689 C.3       1 <0>        -0.1700
     13 C8          0.0946   -7.2515   -2.3818 C.2       1 <0>         0.4160
     14 O1          0.1059   -7.6465   -1.2355 O.2       1 <0>        -0.4337
     15 C9          0.1032   -8.2166   -3.4928 C.ar      1 <0>        -0.1715
     16 C10         0.0961   -7.7649   -4.8163 C.ar      1 <0>        -0.0669
     17 C11         0.1047   -8.6754   -5.8518 C.ar      1 <0>        -0.1299
     18 C12         0.1203  -10.0332   -5.5840 C.ar      1 <0>        -0.0371
     19 C13         0.1270  -10.4882   -4.2769 C.ar      1 <0>        -0.1272
     20 C14         0.1243   -9.5902   -3.2305 C.ar      1 <0>        -0.0520
     21 C15         0.1296  -11.0215   -6.7217 C.3       1 <0>        -0.0540
     22 C16        -1.1096  -11.9144   -6.6317 C.3       1 <0>        -0.1113
     23 C17        -1.1001  -12.9177   -7.7868 C.3       1 <0>        -0.1203
     24 C18         0.1590  -13.7826   -7.7007 C.3       1 <0>        -0.1221
     25 C19         1.3982  -12.8898   -7.7906 C.3       1 <0>        -0.1204
     26 C20         1.3888  -11.8864   -6.6356 C.3       1 <0>        -0.1113
     27 H1          1.0048    1.8381    0.0023 H         1 <0>         0.0773
     28 H2         -0.5450    1.8219   -0.8730 H         1 <0>         0.0937
     29 H3         -0.5280    1.8123    0.9069 H         1 <0>         0.0943
     30 H4          0.0500   -2.9339    1.4231 H         1 <0>         0.2043
     31 H5          0.0010   -1.3473   -4.3311 H         1 <0>         0.2078
     32 H6         -0.8246   -5.5264   -3.2382 H         1 <0>         0.1325
     33 H7          0.9552   -5.5007   -3.2468 H         1 <0>         0.1325
     34 H8          0.0836   -6.7057   -5.0269 H         1 <0>         0.1339
     35 H9          0.0989   -8.3282   -6.8744 H         1 <0>         0.1303
     36 H10         0.1388  -11.5492   -4.0760 H         1 <0>         0.1300
     37 H11         0.1341   -9.9466   -2.2111 H         1 <0>         0.1355
     38 H12         0.1221  -10.4840   -7.6699 H         1 <0>         0.0818
     39 H13        -1.1021  -12.4518   -5.6835 H         1 <0>         0.0657
     40 H14        -2.0066  -11.2982   -6.6931 H         1 <0>         0.0643
     41 H15        -1.9829  -13.5538   -7.7227 H         1 <0>         0.0640
     42 H16        -1.1076  -12.3802   -8.7350 H         1 <0>         0.0627
     43 H17         0.1665  -14.3201   -6.7524 H         1 <0>         0.0620
     44 H18         0.1658  -14.4974   -8.5235 H         1 <0>         0.0622
     45 H19         2.2952  -13.5059   -7.7293 H         1 <0>         0.0640
     46 H20         1.3907  -12.3523   -8.7388 H         1 <0>         0.0627
     47 H21         2.2716  -11.2503   -6.6996 H         1 <0>         0.0643
     48 H22         1.3962  -12.4239   -5.6873 H         1 <0>         0.0656
@<TRIPOS>BOND
     1    1    2 1
     2    1   27 1
     3    1   28 1
     4    1   29 1
     5    2    6 1
     6    2    3 1
     7    3   10 ar
     8    3    4 ar
     9    4    5 1
    10    4    7 ar
    11    5    6 2
    12    5   30 1
    13    7    8 ar
    14    7   11 1
    15    8    9 ar
    16    9   10 ar
    17    9   31 1
    18   11   12 1
    19   12   13 1
    20   12   32 1
    21   12   33 1
    22   13   14 2
    23   13   15 1
    24   15   20 ar
    25   15   16 ar
    26   16   17 ar
    27   16   34 1
    28   17   18 ar
    29   17   35 1
    30   18   19 ar
    31   18   21 1
    32   19   20 ar
    33   19   36 1
    34   20   37 1
    35   21   26 1
    36   21   22 1
    37   21   38 1
    38   22   23 1
    39   22   39 1
    40   22   40 1
    41   23   24 1
    42   23   41 1
    43   23   42 1
    44   24   25 1
    45   24   43 1
    46   24   44 1
    47   25   26 1
    48   25   45 1
    49   25   46 1
    50   26   47 1
    51   26   48 1
@<TRIPOS>MOLECULE
ZINC13183435
   57    59     0     0     0
SMALL
USER_CHARGES
2-[(1R)-2-(3-ethoxycarbonyl-5-nitro-benzoyl)-6,7-dimethoxy-3,4-dihydro-1H-isoquinolin-1-yl]acetic acid
@<TRIPOS>ATOM
      1 C1        -13.7757    2.4475   -5.9053 C.3       1 <0>        -0.1536
      2 C2        -13.2036    2.7722   -4.5240 C.3       1 <0>         0.0629
      3 O1        -12.0864    1.8884   -4.2429 O.3       1 <0>        -0.3521
      4 C3        -11.4663    2.0446   -3.0572 C.2       1 <0>         0.5167
      5 O2        -11.8484    2.8959   -2.2795 O.2       1 <0>        -0.4864
      6 C4        -10.3214    1.1806   -2.7028 C.ar      1 <0>        -0.1255
      7 C5         -9.6786    1.3409   -1.4765 C.ar      1 <0>         0.0399
      8 C6         -8.6004    0.5217   -1.1502 C.ar      1 <0>        -0.1124
      9 C7         -8.1669   -0.4507   -2.0549 C.ar      1 <0>         0.0028
     10 C8         -8.8116   -0.6082   -3.2656 C.ar      1 <0>        -0.0608
     11 C9         -9.8809    0.2006   -3.5960 C.ar      1 <0>         0.0108
     12 N1         -8.3505   -1.6447   -4.2164 N.pl3     1 <0>         0.0312
     13 O3         -8.9140   -1.7826   -5.2874 O.2       1 <0>        -0.1537
     14 O4         -7.4076   -2.3596   -3.9279 O.3       1 <0>        -0.1485
     15 C10        -7.9122    0.6850    0.1482 C.2       1 <0>         0.5550
     16 O5         -8.5595    0.8716    1.1599 O.2       1 <0>        -0.4516
     17 N2         -6.5671    0.6269    0.2099 N.am      1 <0>        -0.5945
     18 C11        -5.7473    0.5445   -1.0103 C.3       1 <0>         0.0957
     19 C12        -4.9037    1.8155   -1.0955 C.3       1 <0>        -0.0891
     20 C13        -4.2389    2.1077    0.2242 C.ar      1 <0>        -0.0752
     21 C14        -3.1387    2.9575    0.2149 C.ar      1 <0>        -0.1726
     22 C15        -2.4859    3.2769    1.3905 C.ar      1 <0>         0.0944
     23 C16        -2.9399    2.7492    2.5959 C.ar      1 <0>         0.1033
     24 C17        -4.0337    1.9036    2.6015 C.ar      1 <0>        -0.1620
     25 C18        -4.6826    1.5812    1.4166 C.ar      1 <0>        -0.0710
     26 C19        -5.8610    0.6428    1.4954 C.3       1 <0>         0.2059
     27 H1         -5.5092   -0.3622    1.7284 H         1 <0>         0.0996
     28 C20        -6.8156    1.1154    2.5937 C.3       1 <0>        -0.1518
     29 C21        -7.7350   -0.0142    2.9805 C.2       1 <0>         0.4969
     30 O6         -7.5764   -1.1127    2.5029 O.co2     1 <0>        -0.6590
     31 O7         -2.3114    3.0629    3.7604 O.3       1 <0>        -0.3084
     32 C22        -2.8349    2.4830    4.9569 C.3       1 <0>         0.0230
     33 O8         -1.4088    4.1069    1.3703 O.3       1 <0>        -0.3080
     34 C23        -1.0008    4.6095    0.0963 C.3       1 <0>         0.0277
     35 H2        -13.0027    2.5874   -6.6609 H         1 <0>         0.0682
     36 H3        -14.1178    1.4127   -5.9228 H         1 <0>         0.0689
     37 H4        -14.6144    3.1109   -6.1163 H         1 <0>         0.0819
     38 H5        -13.9767    2.6322   -3.7684 H         1 <0>         0.0747
     39 H6        -12.8616    3.8070   -4.5065 H         1 <0>         0.0738
     40 H7        -10.0152    2.0966   -0.7823 H         1 <0>         0.1682
     41 H8         -7.3284   -1.0837   -1.8047 H         1 <0>         0.1710
     42 H9        -10.3779    0.0752   -4.5465 H         1 <0>         0.1719
     43 H10        -5.0957   -0.3278   -0.9587 H         1 <0>         0.0853
     44 H11        -6.3938    0.4716   -1.8848 H         1 <0>         0.0847
     45 H12        -4.1389    1.6874   -1.8615 H         1 <0>         0.0857
     46 H13        -5.5453    2.6540   -1.3663 H         1 <0>         0.0781
     47 H14        -2.7883    3.3688   -0.7203 H         1 <0>         0.1323
     48 H15        -4.3866    1.4907    3.5349 H         1 <0>         0.1423
     49 H16        -6.2403    1.4301    3.4644 H         1 <0>         0.0573
     50 H17        -7.4059    1.9546    2.2257 H         1 <0>         0.0834
     51 H18        -2.2431    2.8141    5.8103 H         1 <0>         0.0994
     52 H19        -3.8705    2.7960    5.0895 H         1 <0>         0.0586
     53 H20        -2.7903    1.3963    4.8836 H         1 <0>         0.0571
     54 H21        -0.7407    3.7763   -0.5566 H         1 <0>         0.0530
     55 H22        -0.1331    5.2571    0.2221 H         1 <0>         0.0972
     56 H23        -1.8174    5.1783   -0.3483 H         1 <0>         0.0524
     57 O9         -8.7300    0.1999    3.8555 O.co2     1 <0>        -0.7749
@<TRIPOS>BOND
     1    1    2 1
     2    1   35 1
     3    1   36 1
     4    1   37 1
     5    2    3 1
     6    2   38 1
     7    2   39 1
     8    3    4 1
     9    4    5 2
    10    4    6 1
    11    6   11 ar
    12    6    7 ar
    13    7    8 ar
    14    7   40 1
    15    8    9 ar
    16    8   15 1
    17    9   10 ar
    18    9   41 1
    19   10   11 ar
    20   10   12 1
    21   11   42 1
    22   12   13 2
    23   12   14 1
    24   15   16 2
    25   15   17 am
    26   17   26 1
    27   17   18 1
    28   18   19 1
    29   18   43 1
    30   18   44 1
    31   19   20 1
    32   19   45 1
    33   19   46 1
    34   20   25 ar
    35   20   21 ar
    36   21   22 ar
    37   21   47 1
    38   22   23 ar
    39   22   33 1
    40   23   24 ar
    41   23   31 1
    42   24   25 ar
    43   24   48 1
    44   25   26 1
    45   26   27 1
    46   26   28 1
    47   28   29 1
    48   28   49 1
    49   28   50 1
    50   29   30 2
    51   29   57 1
    52   31   32 1
    53   32   51 1
    54   32   52 1
    55   32   53 1
    56   33   34 1
    57   34   54 1
    58   34   55 1
    59   34   56 1
@<TRIPOS>MOLECULE
ZINC13445203
   57    60     0     0     0
SMALL
USER_CHARGES
3-[2-[2-[4-(2-nitrophenyl)piperazin-1-yl]-2-oxo-ethyl]sulfanyl-4-oxo-quinazolin-3-yl]propanoic acid
@<TRIPOS>ATOM
      1 C1          3.2731    1.4548    5.9258 C.ar      1 <0>        -0.1520
      2 C2          2.8617    0.2243    6.4218 C.ar      1 <0>        -0.0723
      3 C3          1.8538   -0.4749    5.8202 C.ar      1 <0>        -0.1213
      4 C4          1.2251    0.0530    4.6885 C.ar      1 <0>         0.1790
      5 C5          1.6466    1.3054    4.1867 C.ar      1 <0>        -0.2049
      6 C6          2.6777    1.9972    4.8206 C.ar      1 <0>        -0.0342
      7 C7          0.9699    1.8396    2.9970 C.2       1 <0>         0.5485
      8 O1          1.2882    2.9124    2.5178 O.2       1 <0>        -0.4989
      9 N1         -0.0203    1.0939    2.4537 N.am      1 <0>        -0.5214
     10 C8         -0.3673   -0.1052    3.0076 C.2       1 <0>         0.3648
     11 N2          0.2260   -0.6028    4.0646 N.2       1 <0>        -0.5525
     12 S1         -1.6685   -1.0298    2.2616 S.3       1 <0>         0.1039
     13 C9         -1.7021   -2.4680    3.3601 C.3       1 <0>        -0.1592
     14 C10        -2.7722   -3.4251    2.9020 C.2       1 <0>         0.5349
     15 O2         -3.4459   -3.1609    1.9288 O.2       1 <0>        -0.5146
     16 N3         -2.9806   -4.5746    3.5740 N.am      1 <0>        -0.6109
     17 C11        -2.1710   -4.9172    4.7531 C.3       1 <0>         0.1113
     18 C12        -3.1238   -5.2818    5.9027 C.3       1 <0>         0.0491
     19 N4         -4.0435   -6.3357    5.4539 N.pl3     1 <0>        -0.4958
     20 C13        -4.8958   -5.8661    4.3534 C.3       1 <0>         0.0492
     21 C14        -4.0197   -5.5226    3.1440 C.3       1 <0>         0.1203
     22 C15        -4.8150   -6.8126    6.5161 C.ar      1 <0>         0.1571
     23 C16        -5.7105   -5.9680    7.1602 C.ar      1 <0>        -0.1512
     24 C17        -6.4759   -6.4442    8.2063 C.ar      1 <0>        -0.0587
     25 C18        -6.3434   -7.7572    8.6204 C.ar      1 <0>        -0.1205
     26 C19        -5.4490   -8.5988    7.9853 C.ar      1 <0>        -0.0531
     27 C20        -4.6845   -8.1305    6.9345 C.ar      1 <0>        -0.0258
     28 N5         -3.7269   -9.0320    6.2556 N.pl3     1 <0>         0.0263
     29 O3         -3.6130  -10.1876    6.6230 O.2       1 <0>        -0.1982
     30 O4         -3.0528   -8.6182    5.3293 O.3       1 <0>        -0.0952
     31 C21        -0.7288    1.5792    1.2668 C.3       1 <0>         0.1050
     32 C22        -0.0127    1.0858    0.0080 C.3       1 <0>        -0.1713
     33 C23        -0.7416    1.5850   -1.2129 C.2       1 <0>         0.4715
     34 O5         -1.7322    2.2656   -1.0889 O.co2     1 <0>        -0.6371
     35 H1          4.0718    1.9892    6.4186 H         1 <0>         0.1286
     36 H2          3.3459   -0.1859    7.2957 H         1 <0>         0.1291
     37 H3          1.5440   -1.4304    6.2171 H         1 <0>         0.1347
     38 H4          3.0041    2.9544    4.4414 H         1 <0>         0.1354
     39 H5         -0.7333   -2.9670    3.3350 H         1 <0>         0.1309
     40 H6         -1.9170   -2.1427    4.3780 H         1 <0>         0.1270
     41 H7         -1.5290   -5.7673    4.5221 H         1 <0>         0.0919
     42 H8         -1.5605   -4.0609    5.0395 H         1 <0>         0.0985
     43 H9         -3.6953   -4.4019    6.1981 H         1 <0>         0.0497
     44 H10        -2.5451   -5.6420    6.7532 H         1 <0>         0.0900
     45 H11        -5.4426   -4.9781    4.6704 H         1 <0>         0.0490
     46 H12        -5.6019   -6.6503    4.0801 H         1 <0>         0.0900
     47 H13        -4.6320   -5.0667    2.3660 H         1 <0>         0.1040
     48 H14        -3.5520   -6.4297    2.7613 H         1 <0>         0.0869
     49 H15        -5.8112   -4.9414    6.8403 H         1 <0>         0.1434
     50 H16        -7.1752   -5.7893    8.7048 H         1 <0>         0.1430
     51 H17        -6.9397   -8.1258    9.4420 H         1 <0>         0.1477
     52 H18        -5.3477   -9.6234    8.3114 H         1 <0>         0.1555
     53 H19        -0.7436    2.6691    1.2728 H         1 <0>         0.1089
     54 H20        -1.7514    1.2020    1.2746 H         1 <0>         0.1005
     55 H21         0.0021   -0.0041    0.0020 H         1 <0>         0.0745
     56 H22         1.0099    1.4631    0.0003 H         1 <0>         0.0724
     57 O6         -0.2903    1.2736   -2.4381 O.co2     1 <0>        -0.7633
@<TRIPOS>BOND
     1    1    6 ar
     2    1    2 ar
     3    1   35 1
     4    2    3 ar
     5    2   36 1
     6    3    4 ar
     7    3   37 1
     8    4   11 1
     9    4    5 ar
    10    5    6 ar
    11    5    7 1
    12    6   38 1
    13    7    8 2
    14    7    9 am
    15    9   10 1
    16    9   31 1
    17   10   11 2
    18   10   12 1
    19   12   13 1
    20   13   14 1
    21   13   39 1
    22   13   40 1
    23   14   15 2
    24   14   16 am
    25   16   21 1
    26   16   17 1
    27   17   18 1
    28   17   41 1
    29   17   42 1
    30   18   19 1
    31   18   43 1
    32   18   44 1
    33   19   20 1
    34   19   22 1
    35   20   21 1
    36   20   45 1
    37   20   46 1
    38   21   47 1
    39   21   48 1
    40   22   27 ar
    41   22   23 ar
    42   23   24 ar
    43   23   49 1
    44   24   25 ar
    45   24   50 1
    46   25   26 ar
    47   25   51 1
    48   26   27 ar
    49   26   52 1
    50   27   28 1
    51   28   29 2
    52   28   30 1
    53   31   32 1
    54   31   53 1
    55   31   54 1
    56   32   33 1
    57   32   55 1
    58   32   56 1
    59   33   34 2
    60   33   57 1
@<TRIPOS>MOLECULE
ZINC33383598
   54    58     0     0     0
SMALL
USER_CHARGES
(2R)-3-(benzofuran-2-carbonyl)-4-hydroxy-1-(3-imidazol-1-ylpropyl)-2-(4-nitrophenyl)-2H-pyrrol-5-one
@<TRIPOS>ATOM
      1 C1         -8.9117    1.6043   -3.1018 C.ar      1 <0>        -0.1428
      2 C2         -8.5224    1.6796   -1.7712 C.ar      1 <0>        -0.0928
      3 C3         -7.1900    1.7716   -1.4307 C.ar      1 <0>        -0.1083
      4 C4         -6.2209    1.7901   -2.4267 C.ar      1 <0>         0.0607
      5 C5         -6.6210    1.7140   -3.7745 C.ar      1 <0>        -0.1393
      6 C6         -7.9774    1.6208   -4.0984 C.ar      1 <0>        -0.0651
      7 C7         -5.3878    1.7607   -4.5574 C.2       1 <0>        -0.1529
      8 C8         -4.3723    1.8503   -3.6556 C.2       1 <0>        -0.0082
      9 O1         -4.8759    1.8698   -2.4042 O.3       1 <0>        -0.1647
     10 C9         -2.9447    1.9215   -3.9940 C.2       1 <0>         0.5385
     11 O2         -2.5977    1.9907   -5.1595 O.2       1 <0>        -0.4434
     12 C10        -1.9368    1.9091   -2.9281 C.2       1 <0>        -0.5059
     13 C11        -1.0935    2.9162   -2.6030 C.2       1 <0>         0.2757
     14 C12        -0.2434    2.4920   -1.4722 C.2       1 <0>         0.5155
     15 O3          0.6154    3.1754   -0.9507 O.2       1 <0>        -0.5233
     16 N1         -0.5598    1.2369   -1.1049 N.am      1 <0>        -0.6119
     17 C13        -1.6363    0.7674   -1.9852 C.3       1 <0>         0.2633
     18 H1         -2.5145    0.4811   -1.3878 H         1 <0>         0.0806
     19 C14        -1.1815   -0.4426   -2.7599 C.ar      1 <0>        -0.0245
     20 C15         0.0607   -0.4483   -3.3662 C.ar      1 <0>        -0.0888
     21 C16         0.4798   -1.5601   -4.0728 C.ar      1 <0>        -0.0534
     22 C17        -0.3475   -2.6622   -4.1815 C.ar      1 <0>        -0.0544
     23 C18        -1.5921   -2.6543   -3.5800 C.ar      1 <0>        -0.0537
     24 C19        -2.0090   -1.5445   -2.8690 C.ar      1 <0>        -0.1162
     25 N2          0.0992   -3.8507   -4.9425 N.pl3     1 <0>         0.0340
     26 O4         -0.6299   -4.8216   -5.0386 O.2       1 <0>        -0.1700
     27 O5          1.1958   -3.8577   -5.4725 O.3       1 <0>        -0.1679
     28 C20         0.0640    0.4722   -0.0222 C.3       1 <0>         0.1379
     29 C21        -0.6950    0.7230    1.2823 C.3       1 <0>        -0.1551
     30 C22        -0.0436   -0.0757    2.4131 C.3       1 <0>         0.1054
     31 N3         -0.7704    0.1644    3.6622 N.pl3     1 <0>        -0.4554
     32 C23        -0.5081    1.1469    4.5785 C.2       1 <0>        -0.0528
     33 C24        -1.4123    1.0091    5.5670 C.2       1 <0>        -0.0340
     34 N4         -2.1991   -0.0349    5.2671 N.2       1 <0>        -0.4983
     35 C25        -1.8204   -0.5458    4.1276 C.2       1 <0>         0.1798
     36 O6         -1.0382    4.1215   -3.2164 O.3       1 <0>        -0.6377
     37 H2         -9.9602    1.5320   -3.3507 H         1 <0>         0.1274
     38 H3         -9.2723    1.6655   -0.9940 H         1 <0>         0.1332
     39 H4         -6.8997    1.8296   -0.3921 H         1 <0>         0.1325
     40 H5         -8.2855    1.5616   -5.1318 H         1 <0>         0.1269
     41 H6         -5.3000    1.7285   -5.6334 H         1 <0>         0.1644
     42 H7          0.7054    0.4143   -3.2847 H         1 <0>         0.1434
     43 H8          1.4520   -1.5662   -4.5431 H         1 <0>         0.1505
     44 H9         -2.2385   -3.5152   -3.6653 H         1 <0>         0.1503
     45 H10        -2.9814   -1.5383   -2.3990 H         1 <0>         0.1449
     46 H11         0.0316   -0.6002   -0.2649 H         1 <0>         0.0787
     47 H12         1.1105    0.7901    0.0955 H         1 <0>         0.0861
     48 H13        -0.6626    1.7954    1.5250 H         1 <0>         0.0792
     49 H14        -1.7415    0.4052    1.1646 H         1 <0>         0.0768
     50 H15        -0.0760   -1.1481    2.1704 H         1 <0>         0.0967
     51 H16         1.0029    0.2421    2.5309 H         1 <0>         0.0959
     52 H17         0.2723    1.8911    4.5189 H         1 <0>         0.1727
     53 H18        -1.4873    1.6276    6.4492 H         1 <0>         0.1675
     54 H19        -2.2717   -1.3962    3.6380 H         1 <0>         0.2021
@<TRIPOS>BOND
     1    1    6 ar
     2    1    2 ar
     3    1   37 1
     4    2    3 ar
     5    2   38 1
     6    3    4 ar
     7    3   39 1
     8    4    9 1
     9    4    5 ar
    10    5    6 ar
    11    5    7 1
    12    6   40 1
    13    7    8 2
    14    7   41 1
    15    8    9 1
    16    8   10 1
    17   10   11 2
    18   10   12 1
    19   12   17 1
    20   12   13 2
    21   13   14 1
    22   13   36 1
    23   14   15 2
    24   14   16 am
    25   16   17 1
    26   16   28 1
    27   17   18 1
    28   17   19 1
    29   19   24 ar
    30   19   20 ar
    31   20   21 ar
    32   20   42 1
    33   21   22 ar
    34   21   43 1
    35   22   23 ar
    36   22   25 1
    37   23   24 ar
    38   23   44 1
    39   24   45 1
    40   25   26 2
    41   25   27 1
    42   28   29 1
    43   28   46 1
    44   28   47 1
    45   29   30 1
    46   29   48 1
    47   29   49 1
    48   30   31 1
    49   30   50 1
    50   30   51 1
    51   31   35 1
    52   31   32 1
    53   32   33 2
    54   32   52 1
    55   33   34 1
    56   33   53 1
    57   34   35 2
    58   35   54 1
@<TRIPOS>MOLECULE
ZINC13061166
   64    66     0     0     0
SMALL
USER_CHARGES

@<TRIPOS>ATOM
      1 C1         -3.5221    1.5957    4.5112 C.3       1 <0>        -0.1370
      2 C2         -3.1588    0.1753    4.0738 C.3       1 <0>        -0.1011
      3 H1         -2.3211    0.2126    3.3774 H         1 <0>         0.1005
      4 C3         -2.7661   -0.6512    5.3000 C.3       1 <0>         0.0740
      5 N1         -1.5385   -0.1000    5.8893 N.3       1 <0>        -0.5347
      6 C4         -0.3955   -0.2700    4.9805 C.3       1 <0>         0.0102
      7 C5          0.8467    0.3696    5.6064 C.3       1 <0>         0.0645
      8 O1          1.0833   -0.2163    6.8894 O.3       1 <0>        -0.3861
      9 C6         -0.0095   -0.0688    7.8001 C.3       1 <0>         0.0643
     10 C7         -1.2604   -0.7128    7.1964 C.3       1 <0>         0.0178
     11 C8         -4.3459   -0.4614    3.3981 C.2       1 <0>         0.5338
     12 O2         -4.8302   -1.4765    3.8527 O.2       1 <0>        -0.5040
     13 N2         -4.8694    0.0970    2.2888 N.am      1 <0>        -0.5829
     14 N3         -5.9730   -0.4949    1.6606 N.2       1 <0>        -0.2328
     15 C9         -6.4770    0.0427    0.5926 C.2       1 <0>         0.1440
     16 C10        -5.8753    1.3037    0.0279 C.3       1 <0>        -0.1587
     17 C11        -7.6387   -0.5804   -0.0687 C.ar      1 <0>        -0.0108
     18 C12        -8.1803   -0.0077   -1.2219 C.ar      1 <0>        -0.1260
     19 C13        -9.2666   -0.5961   -1.8353 C.ar      1 <0>         0.0397
     20 C14        -9.8200   -1.7507   -1.3108 C.ar      1 <0>        -0.6410
     21 C15        -9.2887   -2.3236   -0.1687 C.ar      1 <0>        -0.0346
     22 C16        -8.1990   -1.7493    0.4520 C.ar      1 <0>        -0.1180
     23 S1        -11.2083   -2.4948   -2.1005 S.o2      1 <0>         2.6861
     24 O3        -12.0741   -2.9398   -1.0653 O.2       1 <0>        -0.9853
     25 O4        -11.6321   -1.5918   -3.1125 O.2       1 <0>        -0.9135
     26 N4        -10.6612   -3.8519   -2.8760 N.pl3     1 <0>        -0.9749
     27 C17       -10.6390   -5.1498   -2.1877 C.3       1 <0>         0.1186
     28 C18        -9.2268   -5.7354   -2.2851 C.3       1 <0>        -0.1330
     29 C19        -8.8043   -5.7960   -3.7548 C.3       1 <0>        -0.1153
     30 C20        -8.7822   -4.3820   -4.3397 C.3       1 <0>        -0.1136
     31 C21       -10.1946   -3.7821   -4.2674 C.3       1 <0>         0.0830
     32 H2        -10.8691   -4.3502   -4.9080 H         1 <0>         0.0679
     33 C22       -10.1583   -2.3440   -4.7166 C.2       1 <0>         0.5010
     34 O5         -9.4363   -1.5449   -4.1452 O.co2     1 <0>        -0.6872
     35 O6        -10.8511   -1.9797   -5.6514 O.co2     1 <0>        -0.6663
     36 H3         -2.6635    2.0562    4.9999 H         1 <0>         0.0826
     37 H4         -3.8019    2.1845    3.6376 H         1 <0>         0.0535
     38 H5         -4.3598    1.5583    5.2076 H         1 <0>         0.0615
     39 H6         -3.5700   -0.6151    6.0352 H         1 <0>         0.0872
     40 H7         -2.5932   -1.6851    5.0012 H         1 <0>         0.0491
     41 H8         -0.2149   -1.3325    4.8176 H         1 <0>         0.0457
     42 H9         -0.6129    0.2132    4.0280 H         1 <0>         0.0875
     43 H10         1.7090    0.1963    4.9626 H         1 <0>         0.0980
     44 H11         0.6861    1.4417    5.7200 H         1 <0>         0.0602
     45 H12         0.2335   -0.5592    8.7427 H         1 <0>         0.0985
     46 H13        -0.1950    0.9906    7.9774 H         1 <0>         0.0603
     47 H14        -2.1091   -0.5529    7.8614 H         1 <0>         0.0886
     48 H15        -1.0936   -1.7824    7.0689 H         1 <0>         0.0455
     49 H16        -4.4821    0.9086    1.9253 H         1 <0>         0.3849
     50 H17        -5.0972    1.0450   -0.6902 H         1 <0>         0.0898
     51 H18        -6.6511    1.8849   -0.4705 H         1 <0>         0.0951
     52 H19        -5.4424    1.8932    0.8361 H         1 <0>         0.0670
     53 H20        -7.7498    0.8939   -1.6319 H         1 <0>         0.1317
     54 H21        -9.6864   -0.1544   -2.7270 H         1 <0>         0.1727
     55 H22        -9.7260   -3.2247    0.2354 H         1 <0>         0.1276
     56 H23        -7.7825   -2.2000    1.3407 H         1 <0>         0.1338
     57 H24       -10.9061   -5.0123   -1.1399 H         1 <0>         0.0821
     58 H25       -11.3490   -5.8272   -2.6621 H         1 <0>         0.0679
     59 H26        -8.5318   -5.1031   -1.7325 H         1 <0>         0.0654
     60 H27        -9.2198   -6.7402   -1.8628 H         1 <0>         0.0668
     61 H28        -7.8094   -6.2352   -3.8288 H         1 <0>         0.0561
     62 H29        -9.5136   -6.4083   -4.3116 H         1 <0>         0.0585
     63 H30        -8.0914   -3.7625   -3.7678 H         1 <0>         0.0708
     64 H31        -8.4586   -4.4236   -5.3798 H         1 <0>         0.0629
@<TRIPOS>BOND
     1    1    2 1
     2    1   36 1
     3    1   37 1
     4    1   38 1
     5    2    3 1
     6    2    4 1
     7    2   11 1
     8    4    5 1
     9    4   39 1
    10    4   40 1
    11    5   10 1
    12    5    6 1
    13    6    7 1
    14    6   41 1
    15    6   42 1
    16    7    8 1
    17    7   43 1
    18    7   44 1
    19    8    9 1
    20    9   10 1
    21    9   45 1
    22    9   46 1
    23   10   47 1
    24   10   48 1
    25   11   12 2
    26   11   13 am
    27   13   14 1
    28   13   49 1
    29   14   15 2
    30   15   16 1
    31   15   17 1
    32   16   50 1
    33   16   51 1
    34   16   52 1
    35   17   22 ar
    36   17   18 ar
    37   18   19 ar
    38   18   53 1
    39   19   20 ar
    40   19   54 1
    41   20   21 ar
    42   20   23 1
    43   21   22 ar
    44   21   55 1
    45   22   56 1
    46   23   24 2
    47   23   25 2
    48   23   26 1
    49   26   31 1
    50   26   27 1
    51   27   28 1
    52   27   57 1
    53   27   58 1
    54   28   29 1
    55   28   59 1
    56   28   60 1
    57   29   30 1
    58   29   61 1
    59   29   62 1
    60   30   31 1
    61   30   63 1
    62   30   64 1
    63   31   32 1
    64   31   33 1
    65   33   34 2
    66   33   35 1
@<TRIPOS>MOLECULE
ZINC59461197
   60    62     0     0     0
SMALL
USER_CHARGES

@<TRIPOS>ATOM
      1 C1         -0.0187    1.5258    0.0104 C.3       1 <0>        -0.1735
      2 C2          0.0021   -0.0041    0.0020 C.3       1 <0>         0.1156
      3 N1          0.6878   -0.4765   -1.2033 N.pl3     1 <0>        -0.6206
      4 C3          2.1353   -0.7012   -1.1821 C.3       1 <0>         0.1154
      5 C4          2.4212   -2.1448   -0.7635 C.3       1 <0>        -0.1737
      6 C5         -0.0359   -0.7119   -2.3686 C.ar      1 <0>         0.2537
      7 C6         -1.4118   -0.4918   -2.3874 C.ar      1 <0>        -0.2150
      8 C7         -2.1315   -0.7189   -3.5249 C.ar      1 <0>        -0.0203
      9 C8         -1.4893   -1.1757   -4.6823 C.ar      1 <0>        -0.1692
     10 C9         -0.1019   -1.3989   -4.6676 C.ar      1 <0>         0.2097
     11 C10         0.6173   -1.1600   -3.5103 C.ar      1 <0>        -0.2434
     12 O1          0.5296   -1.8419   -5.7841 O.3       1 <0>        -0.4733
     13 C11        -2.2621   -1.4207   -5.9058 C.2       1 <0>         0.2061
     14 N2         -1.6608   -1.8464   -6.9832 N.2       1 <0>        -0.4696
     15 C12        -2.3814   -2.0749   -8.1240 C.ar      1 <0>         0.1204
     16 C13        -3.5997   -2.7549   -8.0600 C.ar      1 <0>        -0.1784
     17 C14        -4.3209   -2.9813   -9.2137 C.ar      1 <0>        -0.0070
     18 C15        -3.8401   -2.5364  -10.4326 C.ar      1 <0>        -0.6341
     19 C16        -2.6337   -1.8625  -10.5035 C.ar      1 <0>        -0.0105
     20 C17        -1.9047   -1.6241   -9.3570 C.ar      1 <0>        -0.1310
     21 S1         -4.7681   -2.8301  -11.9013 S.o2      1 <0>         2.6329
     22 O2         -3.8434   -2.7957  -12.9797 O.2       1 <0>        -1.0117
     23 O3         -5.5939   -3.9570  -11.6415 O.2       1 <0>        -1.0123
     24 N3         -5.7825   -1.5372  -12.1062 N.2       1 <0>        -1.0528
     25 C18        -6.6412   -1.4956  -13.1933 C.ar      1 <0>         0.5172
     26 C19        -7.4943   -0.4102  -13.3782 C.ar      1 <0>        -0.3114
     27 C20        -8.3370   -0.4128  -14.4822 C.ar      1 <0>         0.3834
     28 N4         -8.3023   -1.4442  -15.3210 N.ar      1 <0>        -0.6823
     29 C21        -7.4792   -2.4589  -15.1148 C.ar      1 <0>         0.5581
     30 N5         -6.6582   -2.4896  -14.0781 N.ar      1 <0>        -0.6367
     31 O4         -7.4731   -3.4915  -15.9914 O.3       1 <0>        -0.2976
     32 C22        -8.3740   -3.4088  -17.0975 C.3       1 <0>         0.0518
     33 O5         -9.1842    0.6222  -14.7015 O.3       1 <0>        -0.3080
     34 C23       -10.0182    0.5438  -15.8593 C.3       1 <0>         0.0446
     35 H1          1.0039    1.9031    0.0027 H         1 <0>         0.0556
     36 H2         -0.5459    1.8868   -0.8726 H         1 <0>         0.0609
     37 H3         -0.5289    1.8773    0.9072 H         1 <0>         0.0647
     38 H4          0.5293   -0.3651    0.8851 H         1 <0>         0.0742
     39 H5         -1.0205   -0.3814    0.0098 H         1 <0>         0.0787
     40 H6          2.5453   -0.5232   -2.1762 H         1 <0>         0.0778
     41 H7          2.5986   -0.0180   -0.4703 H         1 <0>         0.0743
     42 H8          2.0113   -2.3228    0.2307 H         1 <0>         0.0558
     43 H9          1.9579   -2.8280   -1.4752 H         1 <0>         0.0609
     44 H10         3.4982   -2.3119   -0.7477 H         1 <0>         0.0647
     45 H11        -1.9116   -0.1399   -1.4970 H         1 <0>         0.1275
     46 H12        -3.1976   -0.5465   -3.5320 H         1 <0>         0.1314
     47 H13         1.6844   -1.3256   -3.4929 H         1 <0>         0.1305
     48 H14         0.8497   -1.1353   -6.3614 H         1 <0>         0.3930
     49 H15        -3.3283   -1.2488   -5.9146 H         1 <0>         0.1062
     50 H16        -3.9760   -3.1029   -7.1093 H         1 <0>         0.1246
     51 H17        -5.2630   -3.5073   -9.1657 H         1 <0>         0.1382
     52 H18        -2.2642   -1.5183  -11.4582 H         1 <0>         0.1410
     53 H19        -0.9655   -1.0939   -9.4132 H         1 <0>         0.1308
     54 H20        -7.5007    0.4134  -12.6796 H         1 <0>         0.1386
     55 H21        -8.2678   -4.2973  -17.7198 H         1 <0>         0.0913
     56 H22        -9.3975   -3.3440  -16.7284 H         1 <0>         0.0545
     57 H23        -8.1439   -2.5220  -17.6880 H         1 <0>         0.0545
     58 H24        -9.3958    0.4805  -16.7518 H         1 <0>         0.0532
     59 H25       -10.6495   -0.3424  -15.7930 H         1 <0>         0.0532
     60 H26       -10.6456    1.4333  -15.9161 H         1 <0>         0.0871
@<TRIPOS>BOND
     1    1    2 1
     2    1   35 1
     3    1   36 1
     4    1   37 1
     5    2    3 1
     6    2   38 1
     7    2   39 1
     8    3    4 1
     9    3    6 1
    10    4    5 1
    11    4   40 1
    12    4   41 1
    13    5   42 1
    14    5   43 1
    15    5   44 1
    16    6   11 ar
    17    6    7 ar
    18    7    8 ar
    19    7   45 1
    20    8    9 ar
    21    8   46 1
    22    9   10 ar
    23    9   13 1
    24   10   11 ar
    25   10   12 1
    26   11   47 1
    27   12   48 1
    28   13   14 2
    29   13   49 1
    30   14   15 1
    31   15   20 ar
    32   15   16 ar
    33   16   17 ar
    34   16   50 1
    35   17   18 ar
    36   17   51 1
    37   18   19 ar
    38   18   21 1
    39   19   20 ar
    40   19   52 1
    41   20   53 1
    42   21   22 2
    43   21   23 2
    44   21   24 1
    45   24   25 1
    46   25   30 ar
    47   25   26 ar
    48   26   27 ar
    49   26   54 1
    50   27   28 ar
    51   27   33 1
    52   28   29 ar
    53   29   30 ar
    54   29   31 1
    55   31   32 1
    56   32   55 1
    57   32   56 1
    58   32   57 1
    59   33   34 1
    60   34   58 1
    61   34   59 1
    62   34   60 1
@<TRIPOS>MOLECULE
ZINC13411031
   62    63     0     0     0
SMALL
USER_CHARGES
4-[[4-[(6-amino-1-butyl-2,4-dioxo-pyrimidin-5-yl)-ethyl-amino]-4-oxo-butyl]sulfamoyl]benzoic acid
@<TRIPOS>ATOM
      1 C1         -1.9990    2.5237  -11.9184 C.3       1 <0>        -0.1539
      2 C2         -1.5219    3.9222  -11.5216 C.3       1 <0>        -0.1192
      3 C3         -2.3625    4.4347  -10.3505 C.3       1 <0>        -0.1426
      4 C4         -1.8854    5.8332   -9.9536 C.3       1 <0>         0.1047
      5 N1         -2.6903    6.3239   -8.8322 N.am      1 <0>        -0.5377
      6 C5         -2.2901    6.0702   -7.5409 C.2       1 <0>         0.4946
      7 C6         -3.0575    6.5376   -6.4937 C.2       1 <0>        -0.1518
      8 C7         -4.2326    7.2572   -6.7809 C.2       1 <0>         0.5663
      9 O1         -4.9318    7.6777   -5.8746 O.2       1 <0>        -0.5200
     10 N2         -4.5771    7.4828   -8.0638 N.am      1 <0>        -0.6631
     11 H1         -5.4076    8.0006   -8.2689 H         1 <0>         0.4389
     12 C8         -3.8167    7.0195   -9.0716 C.2       1 <0>         0.7127
     13 O2         -4.1532    7.2336  -10.2204 O.2       1 <0>        -0.5369
     14 N3         -2.6740    6.2934   -5.1580 N.am      1 <0>        -0.5221
     15 C9         -2.3420    7.4140   -4.2747 C.3       1 <0>         0.1040
     16 C10        -0.8587    7.7586   -4.4235 C.3       1 <0>        -0.1722
     17 C11        -2.6129    5.0277   -4.6942 C.2       1 <0>         0.5074
     18 O3         -2.9673    4.1057   -5.3988 O.2       1 <0>        -0.5243
     19 C12        -2.1046    4.7594   -3.3012 C.3       1 <0>        -0.1410
     20 C13        -2.1381    3.2545   -3.0271 C.3       1 <0>        -0.1100
     21 C14        -1.6220    2.9820   -1.6128 C.3       1 <0>         0.1130
     22 N4         -1.6541    1.5411   -1.3504 N.pl3     1 <0>        -1.1183
     23 S1         -0.8205    0.9150   -0.0638 S.o2      1 <0>         2.6993
     24 O4         -1.0680   -0.4843   -0.0616 O.2       1 <0>        -0.9645
     25 O5          0.4918    1.4564   -0.1278 O.2       1 <0>        -0.9631
     26 C15        -1.5603    1.5595    1.3997 C.ar      1 <0>        -0.6849
     27 C16        -1.0941    2.7436    1.9430 C.ar      1 <0>        -0.0416
     28 C17        -1.6719    3.2563    3.0859 C.ar      1 <0>        -0.1001
     29 C18        -2.7225    2.5720    3.7005 C.ar      1 <0>        -0.0524
     30 C19        -3.1845    1.3750    3.1498 C.ar      1 <0>        -0.1092
     31 C20        -2.6010    0.8763    2.0036 C.ar      1 <0>        -0.0364
     32 C21        -3.3428    3.1124    4.9275 C.2       1 <0>         0.4826
     33 O6         -4.2568    2.5151    5.4597 O.co2     1 <0>        -0.6208
     34 N5         -1.1392    5.3600   -7.2965 N.pl3     1 <0>        -0.8222
     35 H2         -1.4001    2.1586  -12.7528 H         1 <0>         0.0577
     36 H3         -1.8900    1.8482  -11.0699 H         1 <0>         0.0558
     37 H4         -3.0469    2.5680  -12.2153 H         1 <0>         0.0559
     38 H5         -1.6309    4.5977  -12.3701 H         1 <0>         0.0682
     39 H6         -0.4740    3.8779  -11.2248 H         1 <0>         0.0650
     40 H7         -2.2535    3.7592   -9.5020 H         1 <0>         0.0708
     41 H8         -3.4104    4.4789  -10.6473 H         1 <0>         0.0773
     42 H9         -1.9944    6.5086  -10.8021 H         1 <0>         0.1121
     43 H10        -0.8375    5.7889   -9.6568 H         1 <0>         0.0920
     44 H11        -2.9452    8.2807   -4.5449 H         1 <0>         0.0873
     45 H12        -2.5484    7.1356   -3.2413 H         1 <0>         0.0879
     46 H13        -0.2555    6.8919   -4.1533 H         1 <0>         0.0578
     47 H14        -0.6523    8.0371   -5.4569 H         1 <0>         0.0554
     48 H15        -0.6117    8.5924   -3.7663 H         1 <0>         0.0732
     49 H16        -2.7369    5.2745   -2.5781 H         1 <0>         0.1045
     50 H17        -1.0806    5.1222   -3.2119 H         1 <0>         0.1012
     51 H18        -1.5058    2.7393   -3.7502 H         1 <0>         0.0786
     52 H19        -3.1621    2.8917   -3.1164 H         1 <0>         0.0800
     53 H20        -2.2543    3.4972   -0.8898 H         1 <0>         0.0711
     54 H21        -0.5980    3.3449   -1.5235 H         1 <0>         0.0821
     55 H22        -2.1637    0.9537   -1.9303 H         1 <0>         0.4180
     56 H23        -0.2788    3.2697    1.4689 H         1 <0>         0.1342
     57 H24        -1.3101    4.1829    3.5064 H         1 <0>         0.1411
     58 H25        -3.9969    0.8409    3.6200 H         1 <0>         0.1371
     59 H26        -2.9576   -0.0493    1.5764 H         1 <0>         0.1340
     60 H27        -0.8028    5.2783   -6.3904 H         1 <0>         0.4224
     61 H28        -0.6632    4.9403   -8.0302 H         1 <0>         0.4074
     62 O7         -2.8947    4.2676    5.4562 O.co2     1 <0>        -0.7434
@<TRIPOS>BOND
     1    1    2 1
     2    1   35 1
     3    1   36 1
     4    1   37 1
     5    2    3 1
     6    2   38 1
     7    2   39 1
     8    3    4 1
     9    3   40 1
    10    3   41 1
    11    4    5 1
    12    4   42 1
    13    4   43 1
    14    5   12 am
    15    5    6 1
    16    6    7 2
    17    6   34 1
    18    7    8 1
    19    7   14 1
    20    8    9 2
    21    8   10 am
    22   10   11 1
    23   10   12 am
    24   12   13 2
    25   14   15 1
    26   14   17 am
    27   15   16 1
    28   15   44 1
    29   15   45 1
    30   16   46 1
    31   16   47 1
    32   16   48 1
    33   17   18 2
    34   17   19 1
    35   19   20 1
    36   19   49 1
    37   19   50 1
    38   20   21 1
    39   20   51 1
    40   20   52 1
    41   21   22 1
    42   21   53 1
    43   21   54 1
    44   22   23 1
    45   22   55 1
    46   23   24 2
    47   23   25 2
    48   23   26 1
    49   26   31 ar
    50   26   27 ar
    51   27   28 ar
    52   27   56 1
    53   28   29 ar
    54   28   57 1
    55   29   30 ar
    56   29   32 1
    57   30   31 ar
    58   30   58 1
    59   31   59 1
    60   32   33 2
    61   32   62 1
    62   34   60 1
    63   34   61 1
@<TRIPOS>MOLECULE
ZINC22054181
   50    53     0     0     0
SMALL
USER_CHARGES
(6R,7R)-7-[[(2E)-2-(2-aminothiazol-4-yl)-2-(trideuteriomethoxyimino)acetyl]amino]-3-[(Z)-2-(4-methylthiazol-5-yl)vinyl]-8-oxo-5-thia-1-azabicyclo[4.2.0]oct-2-ene-2-carboxylic acid
@<TRIPOS>ATOM
      1 H1         -3.2669    5.5467    6.9978 H         1 <0>         0.1038
      2 C1         -2.7684    5.3548    6.0362 C.3       1 <0>         0.0259
      3 H2         -2.5707    6.3104    5.5285 H         1 <0>         0.0592
      4 H3         -1.8178    4.8306    6.2141 H         1 <0>         0.0578
      5 O1         -3.6125    4.5450    5.2153 O.3       1 <0>        -0.2165
      6 N1         -3.0607    4.2385    3.9478 N.2       1 <0>        -0.2887
      7 C2         -3.7320    3.5064    3.1048 C.2       1 <0>         0.1868
      8 C3         -5.1341    3.1389    3.3979 C.2       1 <0>         0.0985
      9 C4         -5.8114    3.7487    4.4199 C.2       1 <0>        -0.1881
     10 S1         -7.3977    2.9326    4.3025 S.3       1 <0>        -0.0420
     11 C5         -7.0051    1.8719    2.9189 C.2       1 <0>         0.3979
     12 N2         -5.7559    2.2144    2.6673 N.2       1 <0>        -0.5372
     13 N3         -7.8031    0.9401    2.2766 N.pl3     1 <0>        -0.8209
     14 C6         -3.0906    3.0418    1.8523 C.2       1 <0>         0.5825
     15 O2         -3.7168    2.3590    1.0661 O.2       1 <0>        -0.4758
     16 N4         -1.8128    3.3767    1.5852 N.am      1 <0>        -0.7151
     17 C7         -1.1787    2.9175    0.3469 C.3       1 <0>         0.1130
     18 H4         -2.0931    2.8414   -0.2598 H         1 <0>         0.1615
     19 C8          0.0396    3.7176   -0.0525 C.3       1 <0>         0.1273
     20 H5          0.0499    3.9849   -1.1195 H         1 <0>         0.1521
     21 N5          0.8492    2.5876    0.4644 N.am      1 <0>        -0.5450
     22 C9         -0.2054    1.7878    0.5413 C.2       1 <0>         0.5349
     23 O3         -0.3360    0.5926    0.7025 O.2       1 <0>        -0.4329
     24 C10         2.2070    2.6127    0.8316 C.2       1 <0>         0.1523
     25 C11         2.8203    3.7940    1.0813 C.2       1 <0>        -0.1639
     26 C12         2.2474    5.1676    0.9467 C.3       1 <0>        -0.0229
     27 S2          0.4292    5.1534    1.0044 S.3       1 <0>        -0.2179
     28 C13         4.1541    3.7192    1.5194 C.2       1 <0>         0.0284
     29 C14         4.4707    4.0650    2.7950 C.2       1 <0>        -0.1552
     30 C15         3.4426    4.3358    3.7316 C.2       1 <0>        -0.1076
     31 C16         3.5314    4.7804    5.0470 C.2       1 <0>         0.0081
     32 N6          2.4124    4.9539    5.7045 N.2       1 <0>        -0.4962
     33 C17         1.2405    4.7204    5.1540 C.2       1 <0>        -0.0267
     34 S3          1.6690    4.2095    3.5508 S.3       1 <0>         0.1045
     35 C18         4.8663    5.0517    5.6916 C.3       1 <0>        -0.0705
     36 C19         2.9340    1.4000    0.9404 C.2       1 <0>         0.4767
     37 O4          2.3604    0.3336    0.8182 O.co2     1 <0>        -0.5882
     38 O5          4.2624    1.4285    1.1795 O.co2     1 <0>        -0.7079
     39 H6         -5.4788    4.5121    5.1077 H         1 <0>         0.2121
     40 H7         -7.4024    0.3631    1.4301 H         1 <0>         0.4444
     41 H8         -8.8377    0.7769    2.6129 H         1 <0>         0.4414
     42 H9         -1.2459    3.9948    2.2970 H         1 <0>         0.4351
     43 H10         2.6130    5.7996    1.7694 H         1 <0>         0.1242
     44 H11         2.5580    5.6018   -0.0151 H         1 <0>         0.1050
     45 H12         4.9414    3.3808    0.8298 H         1 <0>         0.1502
     46 H13         5.5252    4.1347    3.1004 H         1 <0>         0.1351
     47 H14         0.2576    4.8251    5.5890 H         1 <0>         0.2005
     48 H15         4.7115    5.3921    6.7261 H         1 <0>         0.0658
     49 H16         5.3957    5.8315    5.1244 H         1 <0>         0.0664
     50 H17         5.4661    4.1296    5.6948 H         1 <0>         0.0677
@<TRIPOS>BOND
     1    1    2 1
     2    2    3 1
     3    2    4 1
     4    2    5 1
     5    5    6 1
     6    6    7 2
     7    7    8 1
     8    7   14 1
     9    8   12 1
    10    8    9 2
    11    9   10 1
    12    9   39 1
    13   10   11 1
    14   11   12 2
    15   11   13 1
    16   13   40 1
    17   13   41 1
    18   14   15 2
    19   14   16 am
    20   16   17 1
    21   16   42 1
    22   17   18 1
    23   17   22 1
    24   17   19 1
    25   19   20 1
    26   19   27 1
    27   19   21 1
    28   21   22 am
    29   21   24 1
    30   22   23 2
    31   24   25 2
    32   24   36 1
    33   25   26 1
    34   25   28 1
    35   26   27 1
    36   26   43 1
    37   26   44 1
    38   28   29 2
    39   28   45 1
    40   29   30 1
    41   29   46 1
    42   30   34 1
    43   30   31 2
    44   31   32 1
    45   31   35 1
    46   32   33 2
    47   33   34 1
    48   33   47 1
    49   35   48 1
    50   35   49 1
    51   35   50 1
    52   36   37 2
    53   36   38 1
@<TRIPOS>MOLECULE
ZINC39680048
   59    63     0     0     0
SMALL
USER_CHARGES

@<TRIPOS>ATOM
      1 C1         -0.0178    1.4608    0.0101 C.3       1 <0>         0.0690
      2 N1          0.0021   -0.0041    0.0020 N.am      1 <0>        -0.6231
      3 C2         -1.2746   -0.6947    0.0047 C.3       1 <0>         0.3164
      4 H1         -1.9975   -0.0842    0.5458 H         1 <0>         0.1547
      5 N2         -1.2376   -2.0258    0.6174 N.2       1 <0>        -0.4514
      6 C3         -0.1303   -2.6737    0.6491 C.2       1 <0>         0.2097
      7 C4          1.1795   -2.0996    0.2035 C.2       1 <0>        -0.2409
      8 H2          1.8670   -5.0012   -0.6191 H         1 <0>         0.1475
      9 C5          1.2076   -0.6145   -0.0128 C.2       1 <0>         0.5823
     10 O1          2.2435   -0.0020   -0.1857 O.2       1 <0>        -0.5042
     11 C6          2.2008   -2.9313    0.0351 C.2       1 <0>         0.0187
     12 C7          1.9123   -4.4123    0.2970 C.3       1 <0>        -0.0459
     13 S1          0.2890   -4.3163    1.1598 S.3       1 <0>        -0.0564
     14 C8          2.9832   -4.9196    1.2665 C.3       1 <0>        -0.0996
     15 C9          4.3661   -4.6233    0.6815 C.3       1 <0>        -0.1207
     16 C10         4.5945   -3.1155    0.5888 C.3       1 <0>        -0.1162
     17 C11         3.6015   -2.4937   -0.3813 C.3       1 <0>        -0.0980
     18 S2         -1.8392   -0.8690   -1.7104 S.3       1 <0>        -0.1327
     19 C12        -0.5277   -1.8357   -2.5080 C.3       1 <0>        -0.1220
     20 C13        -0.8765   -2.0554   -3.9576 C.2       1 <0>         0.5307
     21 O2         -1.9081   -1.6042   -4.4082 O.2       1 <0>        -0.5259
     22 N3         -0.0419   -2.7532   -4.7532 N.am      1 <0>        -0.6797
     23 C14        -0.3809   -2.9667   -6.1623 C.3       1 <0>         0.0871
     24 H3         -0.8990   -2.0889   -6.5485 H         1 <0>         0.0821
     25 C15         0.9005   -3.1972   -6.9659 C.3       1 <0>        -0.0409
     26 C16         1.7398   -1.9457   -6.9430 C.2       1 <0>        -0.1519
     27 C17         2.6939   -1.5554   -5.9022 C.ar      1 <0>        -0.0935
     28 C18         3.1146   -2.1359   -4.7045 C.ar      1 <0>        -0.0720
     29 C19         4.0486   -1.5015   -3.9344 C.ar      1 <0>        -0.1485
     30 C20         4.5822   -0.2841   -4.3334 C.ar      1 <0>        -0.0995
     31 C21         4.1812    0.3067   -5.5119 C.ar      1 <0>        -0.1320
     32 C22         3.2322   -0.3214   -6.3114 C.ar      1 <0>         0.0954
     33 N4          2.6405    0.0015   -7.5121 N.pl3     1 <0>        -0.5973
     34 C23         1.7591   -0.9801   -7.8752 C.2       1 <0>         0.0459
     35 C24        -1.2755   -4.1731   -6.2866 C.2       1 <0>         0.4921
     36 O3         -2.0944   -4.2345   -7.1878 O.co2     1 <0>        -0.6916
     37 O4         -1.1805   -5.0875   -5.4858 O.co2     1 <0>        -0.6887
     38 H4          1.0048    1.8381    0.0023 H         1 <0>         0.0927
     39 H5         -0.5450    1.8219   -0.8730 H         1 <0>         0.0755
     40 H6         -0.5280    1.8123    0.9069 H         1 <0>         0.0656
     41 H7          2.8767   -4.4125    2.2254 H         1 <0>         0.0820
     42 H8          2.8690   -5.9945    1.4061 H         1 <0>         0.0848
     43 H9          5.1301   -5.0650    1.3212 H         1 <0>         0.0760
     44 H10         4.4373   -5.0606   -0.3144 H         1 <0>         0.0725
     45 H11         4.4567   -2.6673    1.5728 H         1 <0>         0.0660
     46 H12         5.6108   -2.9239    0.2444 H         1 <0>         0.0778
     47 H13         3.8190   -2.8543   -1.3867 H         1 <0>         0.0937
     48 H14         3.6742   -1.4065   -0.3526 H         1 <0>         0.1153
     49 H15         0.4157   -1.2942   -2.4393 H         1 <0>         0.0986
     50 H16        -0.4310   -2.7992   -2.0076 H         1 <0>         0.1016
     51 H17         0.7832   -3.1140   -4.3928 H         1 <0>         0.3884
     52 H18         1.4630   -4.0200   -6.5247 H         1 <0>         0.0727
     53 H19         0.6439   -3.4438   -7.9962 H         1 <0>         0.0864
     54 H20         2.7032   -3.0827   -4.3873 H         1 <0>         0.1150
     55 H21         4.3737   -1.9511   -3.0078 H         1 <0>         0.1181
     56 H22         5.3190    0.2054   -3.7138 H         1 <0>         0.1206
     57 H23         4.6021    1.2544   -5.8135 H         1 <0>         0.1148
     58 H24         1.1648   -0.9770   -8.7770 H         1 <0>         0.1704
     59 H25         2.8242    0.8035   -8.0259 H         1 <0>         0.4125
@<TRIPOS>BOND
     1    1    2 1
     2    1   38 1
     3    1   39 1
     4    1   40 1
     5    2    9 am
     6    2    3 1
     7    3    4 1
     8    3   18 1
     9    3    5 1
    10    5    6 2
    11    6    7 1
    12    6   13 1
    13    7    9 1
    14    7   11 2
    15    8   12 1
    16    9   10 2
    17   11   17 1
    18   11   12 1
    19   12   14 1
    20   12   13 1
    21   14   15 1
    22   14   41 1
    23   14   42 1
    24   15   16 1
    25   15   43 1
    26   15   44 1
    27   16   17 1
    28   16   45 1
    29   16   46 1
    30   17   47 1
    31   17   48 1
    32   18   19 1
    33   19   20 1
    34   19   49 1
    35   19   50 1
    36   20   21 2
    37   20   22 am
    38   22   23 1
    39   22   51 1
    40   23   24 1
    41   23   25 1
    42   23   35 1
    43   25   52 1
    44   25   53 1
    45   25   26 1
    46   26   27 1
    47   26   34 2
    48   27   28 ar
    49   27   32 ar
    50   28   29 ar
    51   28   54 1
    52   29   30 ar
    53   29   55 1
    54   30   31 ar
    55   30   56 1
    56   31   32 ar
    57   31   57 1
    58   32   33 1
    59   33   59 1
    60   33   34 1
    61   34   58 1
    62   35   36 2
    63   35   37 1
@<TRIPOS>MOLECULE
ZINC40093772
   68    70     0     0     0
SMALL
USER_CHARGES

@<TRIPOS>ATOM
      1 C1          1.6300    2.1979   -1.6725 C.3       1 <0>        -0.0993
      2 C2          1.7703    0.7126   -1.8854 C.ar      1 <0>        -0.1353
      3 C3          0.6962   -0.0219   -2.3352 C.ar      1 <0>        -0.0372
      4 C4          0.8274   -1.3997   -2.5324 C.ar      1 <0>        -0.1685
      5 C5          2.0502   -2.0261   -2.2715 C.ar      1 <0>        -0.0281
      6 C6          3.1190   -1.2845   -1.8221 C.ar      1 <0>        -0.2217
      7 C7          2.9858    0.0868   -1.6327 C.ar      1 <0>         0.1413
      8 O1          4.0436    0.8153   -1.1948 O.3       1 <0>        -0.3103
      9 C8          5.2895    0.1297   -1.0536 C.3       1 <0>         0.0623
     10 C9          6.3430    1.0942   -0.5053 C.3       1 <0>        -0.0946
     11 C10         5.9541    1.5229    0.9110 C.3       1 <0>        -0.1463
     12 C11         7.7044    0.3968   -0.4713 C.3       1 <0>        -0.1461
     13 C12        -0.3217   -2.1912   -3.0141 C.2       1 <0>         0.5041
     14 O2         -1.3518   -1.6316   -3.3409 O.2       1 <0>        -0.4758
     15 C13        -0.2220   -3.6517   -3.0988 C.2       1 <0>        -0.4988
     16 C14        -0.2780   -4.4005   -4.2246 C.2       1 <0>         0.2624
     17 C15        -0.1370   -5.8274   -3.8663 C.2       1 <0>         0.5109
     18 O3         -0.1471   -6.7494   -4.6576 O.2       1 <0>        -0.5389
     19 N1          0.0041   -5.9546   -2.5344 N.am      1 <0>        -0.6045
     20 C16        -0.0305   -4.6102   -1.9467 C.3       1 <0>         0.2676
     21 H1          0.9081   -4.3981   -1.4348 H         1 <0>         0.0784
     22 C17        -1.1838   -4.4990   -0.9830 C.ar      1 <0>        -0.0336
     23 C18        -2.3966   -5.0886   -1.2878 C.ar      1 <0>        -0.1156
     24 C19        -3.4575   -4.9895   -0.4071 C.ar      1 <0>        -0.1070
     25 C20        -3.3066   -4.2984    0.7844 C.ar      1 <0>         0.0592
     26 C21        -2.0858   -3.7054    1.0914 C.ar      1 <0>         0.1005
     27 C22        -1.0249   -3.8126    0.2064 C.ar      1 <0>        -0.1820
     28 O4         -1.9327   -3.0261    2.2596 O.3       1 <0>        -0.3122
     29 C23        -0.6879   -2.3539    2.4608 C.3       1 <0>         0.0267
     30 O5         -4.3495   -4.1996    1.6517 O.3       1 <0>        -0.4879
     31 C24         0.1689   -7.2121   -1.8010 C.3       1 <0>         0.1390
     32 C25         1.6580   -7.5445   -1.6869 C.3       1 <0>         0.0449
     33 O6          2.3075   -6.5533   -0.8884 O.3       1 <0>        -0.3694
     34 C26         3.7095   -6.7712   -0.7182 C.3       1 <0>         0.0613
     35 C27         4.2975   -5.6557    0.1484 C.3       1 <0>         0.0790
     36 O7          3.7411   -5.7301    1.4626 O.3       1 <0>        -0.5639
     37 O8         -0.4377   -3.9193   -5.4791 O.3       1 <0>        -0.6545
     38 H2          1.8841    2.7225   -2.5936 H         1 <0>         0.0641
     39 H3          0.6020    2.4295   -1.3942 H         1 <0>         0.0632
     40 H4          2.3026    2.5158   -0.8759 H         1 <0>         0.0659
     41 H5         -0.2466    0.4656   -2.5352 H         1 <0>         0.1351
     42 H6          2.1556   -3.0903   -2.4222 H         1 <0>         0.1362
     43 H7          4.0637   -1.7675   -1.6204 H         1 <0>         0.1246
     44 H8          5.1682   -0.7060   -0.3644 H         1 <0>         0.0609
     45 H9          5.6104   -0.2446   -2.0257 H         1 <0>         0.0616
     46 H10         6.4008    1.9728   -1.1478 H         1 <0>         0.0806
     47 H11         6.7047    2.2100    1.3017 H         1 <0>         0.0548
     48 H12         4.9843    2.0197    0.8868 H         1 <0>         0.0630
     49 H13         5.8964    0.6443    1.5536 H         1 <0>         0.0532
     50 H14         7.9815    0.0914   -1.4803 H         1 <0>         0.0579
     51 H15         8.4550    1.0840   -0.0807 H         1 <0>         0.0631
     52 H16         7.6467   -0.4817    0.1712 H         1 <0>         0.0572
     53 H17        -2.5155   -5.6275   -2.2161 H         1 <0>         0.1233
     54 H18        -4.4041   -5.4503   -0.6479 H         1 <0>         0.1305
     55 H19        -0.0753   -3.3565    0.4440 H         1 <0>         0.1290
     56 H20         0.1282   -3.0736    2.3973 H         1 <0>         0.0549
     57 H21        -0.5593   -1.5901    1.6938 H         1 <0>         0.0550
     58 H22        -0.6831   -1.8850    3.4448 H         1 <0>         0.0950
     59 H23        -4.3902   -4.9150    2.3010 H         1 <0>         0.3776
     60 H24        -0.2579   -7.1095   -0.8033 H         1 <0>         0.0843
     61 H25        -0.3424   -8.0135   -2.3344 H         1 <0>         0.0940
     62 H26         1.7773   -8.5224   -1.2203 H         1 <0>         0.0552
     63 H27         2.1042   -7.5596   -2.6813 H         1 <0>         0.0537
     64 H28         3.8714   -7.7329   -0.2315 H         1 <0>         0.0519
     65 H29         4.1983   -6.7702   -1.6925 H         1 <0>         0.0607
     66 H30         5.3798   -5.7718    0.2050 H         1 <0>         0.0562
     67 H31         4.0584   -4.6883   -0.2931 H         1 <0>         0.0556
     68 H32         4.0696   -5.0512    2.0678 H         1 <0>         0.3755
@<TRIPOS>BOND
     1    1    2 1
     2    1   38 1
     3    1   39 1
     4    1   40 1
     5    2    7 ar
     6    2    3 ar
     7    3    4 ar
     8    3   41 1
     9    4    5 ar
    10    4   13 1
    11    5    6 ar
    12    5   42 1
    13    6    7 ar
    14    6   43 1
    15    7    8 1
    16    8    9 1
    17    9   10 1
    18    9   44 1
    19    9   45 1
    20   10   11 1
    21   10   12 1
    22   10   46 1
    23   11   47 1
    24   11   48 1
    25   11   49 1
    26   12   50 1
    27   12   51 1
    28   12   52 1
    29   13   14 2
    30   13   15 1
    31   15   20 1
    32   15   16 2
    33   16   17 1
    34   16   37 1
    35   17   18 2
    36   17   19 am
    37   19   20 1
    38   19   31 1
    39   20   21 1
    40   20   22 1
    41   22   27 ar
    42   22   23 ar
    43   23   24 ar
    44   23   53 1
    45   24   25 ar
    46   24   54 1
    47   25   26 ar
    48   25   30 1
    49   26   27 ar
    50   26   28 1
    51   27   55 1
    52   28   29 1
    53   29   56 1
    54   29   57 1
    55   29   58 1
    56   30   59 1
    57   31   32 1
    58   31   60 1
    59   31   61 1
    60   32   33 1
    61   32   62 1
    62   32   63 1
    63   33   34 1
    64   34   35 1
    65   34   64 1
    66   34   65 1
    67   35   36 1
    68   35   66 1
    69   35   67 1
    70   36   68 1
@<TRIPOS>MOLECULE
ZINC01884399
   84    87     0     0     0
SMALL
USER_CHARGES

@<TRIPOS>ATOM
      1 C1         -0.3892    1.6182   -0.4740 C.3       1 <0>        -0.1582
      2 C2         -0.1525    0.1170   -0.2977 C.3       1 <0>        -0.0183
      3 C3          0.1989   -0.5576   -1.6253 C.3       1 <0>        -0.1254
      4 C4          1.6205   -0.2103   -2.0611 C.3       1 <0>         0.1036
      5 H1          1.7213    0.8706   -2.1584 H         1 <0>         0.0609
      6 C5          2.5894   -0.7251   -0.9932 C.3       1 <0>        -0.0514
      7 H2          2.4130   -1.7876   -0.8258 H         1 <0>         0.0906
      8 C6          2.3234    0.0443    0.3010 C.3       1 <0>        -0.0707
      9 H3          3.0072   -0.3070    1.0737 H         1 <0>         0.0880
     10 C7          0.9198   -0.1682    0.7691 C.3       1 <0>        -0.0828
     11 H4          0.7364    0.4595    1.6411 H         1 <0>         0.0899
     12 C8          0.6629   -1.6372    1.1510 C.3       1 <0>        -0.1182
     13 C9         -0.8802   -1.7378    1.1699 C.3       1 <0>        -0.1445
     14 C10        -1.4054   -0.6015    0.2725 C.3       1 <0>         0.1003
     15 C11        -2.2294    0.3626    1.0866 C.2       1 <0>         0.3363
     16 O1         -1.6859    1.2312    1.7257 O.2       1 <0>        -0.4032
     17 C12        -3.7315    0.2426    1.1032 C.3       1 <0>         0.0074
     18 O2         -4.2815    1.2618    1.9403 O.3       1 <0>        -0.3327
     19 C13        -5.6178    1.2939    2.0635 C.2       1 <0>         0.4654
     20 O3         -6.2979    0.4835    1.4799 O.2       1 <0>        -0.5049
     21 C14        -6.2697    2.3407    2.9297 C.3       1 <0>        -0.0959
     22 C15        -7.7882    2.1562    2.8970 C.3       1 <0>        -0.1313
     23 C16        -8.4401    3.2030    3.7632 C.2       1 <0>         0.5098
     24 O4         -7.7574    4.0165    4.3490 O.2       1 <0>        -0.5451
     25 N1         -9.7818    3.2353    3.8869 N.am      1 <0>        -0.7196
     26 C17       -10.4155    4.2529    4.7290 C.3       1 <0>         0.1331
     27 C18       -11.9340    4.0684    4.6963 C.3       1 <0>        -0.0895
     28 C19       -12.4345    4.2130    3.2577 C.3       1 <0>        -0.1402
     29 C20       -12.2902    2.6767    5.2228 C.3       1 <0>        -0.1429
     30 C21       -12.5959    5.1312    5.5757 C.3       1 <0>         0.0466
     31 H5        -12.2393    5.0282    6.6006 H         1 <0>         0.0906
     32 C22       -14.0915    4.9495    5.5436 C.2       1 <0>         0.4770
     33 O5        -14.5931    3.9399    6.0078 O.co2     1 <0>        -0.6887
     34 O6        -14.8000    5.8122    5.0533 O.co2     1 <0>        -0.6872
     35 O7        -12.2632    6.4310    5.0840 O.3       1 <0>        -0.5588
     36 O8         -2.1899   -1.1404   -0.7934 O.3       1 <0>        -0.5377
     37 C23         2.5466    1.5422    0.0747 C.3       1 <0>        -0.1293
     38 C24         4.0083    1.7988   -0.3029 C.3       1 <0>        -0.0963
     39 C25         4.3372    0.9477   -1.5150 C.2       1 <0>        -0.0275
     40 C26         4.8778    1.5238   -2.5792 C.2       1 <0>        -0.2276
     41 C27         5.1902    0.7327   -3.7794 C.2       1 <0>         0.4113
     42 O9          5.7241    1.2489   -4.7433 O.2       1 <0>        -0.4696
     43 C28         4.8425   -0.6983   -3.7877 C.2       1 <0>        -0.2282
     44 C29         4.3091   -1.2539   -2.7108 C.2       1 <0>        -0.0223
     45 C30         4.0324   -0.5149   -1.4420 C.3       1 <0>        -0.0081
     46 C31         4.9400   -1.1235   -0.3712 C.3       1 <0>        -0.1434
     47 O10         1.9066   -0.8355   -3.3139 O.3       1 <0>        -0.5564
     48 H6          0.3858    2.0352   -1.1171 H         1 <0>         0.0678
     49 H7         -1.3659    1.7809   -0.9298 H         1 <0>         0.0543
     50 H8         -0.3563    2.1080    0.4992 H         1 <0>         0.0834
     51 H9          0.1142   -1.6382   -1.5105 H         1 <0>         0.0786
     52 H10        -0.5012   -0.2247   -2.3915 H         1 <0>         0.0722
     53 H11         1.0824   -2.3081    0.4013 H         1 <0>         0.0769
     54 H12         1.0742   -1.8555    2.1365 H         1 <0>         0.0756
     55 H13        -1.1965   -2.7028    0.7741 H         1 <0>         0.0889
     56 H14        -1.2503   -1.6115    2.1874 H         1 <0>         0.0740
     57 H15        -4.1164    0.3578    0.0899 H         1 <0>         0.1079
     58 H16        -4.0136   -0.7367    1.4899 H         1 <0>         0.1012
     59 H17        -5.9131    2.2377    3.9546 H         1 <0>         0.1174
     60 H18        -6.0159    3.3321    2.5546 H         1 <0>         0.1176
     61 H19        -8.1447    2.2592    1.8721 H         1 <0>         0.1029
     62 H20        -8.0419    1.1648    3.2721 H         1 <0>         0.1029
     63 H21       -10.3278    2.5847    3.4184 H         1 <0>         0.4006
     64 H22       -10.0590    4.1499    5.7539 H         1 <0>         0.0650
     65 H23       -10.1618    5.2443    4.3539 H         1 <0>         0.0733
     66 H24       -11.9630    3.4558    2.6312 H         1 <0>         0.0469
     67 H25       -13.5163    4.0816    3.2345 H         1 <0>         0.0680
     68 H26       -12.1807    5.2044    2.8826 H         1 <0>         0.0530
     69 H27       -11.9336    2.5738    6.2477 H         1 <0>         0.0487
     70 H28       -13.3720    2.5453    5.1996 H         1 <0>         0.0974
     71 H29       -11.8187    1.9196    4.5963 H         1 <0>         0.0350
     72 H30       -12.5509    6.5932    4.1751 H         1 <0>         0.3682
     73 H31        -2.9875   -1.6021   -0.5003 H         1 <0>         0.3800
     74 H32         1.8984    1.8873   -0.7308 H         1 <0>         0.0808
     75 H33         2.3077    2.0862    0.9886 H         1 <0>         0.0767
     76 H34         4.1467    2.8526   -0.5444 H         1 <0>         0.0802
     77 H35         4.6572    1.5225    0.5281 H         1 <0>         0.0853
     78 H36         5.0903    2.5826   -2.5652 H         1 <0>         0.1329
     79 H37         5.0220   -1.2935   -4.6709 H         1 <0>         0.1324
     80 H38         4.0591   -2.3037   -2.7530 H         1 <0>         0.1215
     81 H39         4.7228   -2.1871   -0.2724 H         1 <0>         0.0681
     82 H40         5.9826   -0.9909   -0.6603 H         1 <0>         0.0619
     83 H41         4.7613   -0.6262    0.5821 H         1 <0>         0.0709
     84 H42         1.3167   -0.5666   -4.0314 H         1 <0>         0.3766
@<TRIPOS>BOND
     1    1    2 1
     2    1   48 1
     3    1   49 1
     4    1   50 1
     5    2   10 1
     6    2   14 1
     7    2    3 1
     8    3    4 1
     9    3   51 1
    10    3   52 1
    11    4    5 1
    12    4    6 1
    13    4   47 1
    14    6    7 1
    15    6   45 1
    16    6    8 1
    17    8    9 1
    18    8   10 1
    19    8   37 1
    20   10   11 1
    21   10   12 1
    22   12   13 1
    23   12   53 1
    24   12   54 1
    25   13   14 1
    26   13   55 1
    27   13   56 1
    28   14   15 1
    29   14   36 1
    30   15   16 2
    31   15   17 1
    32   17   18 1
    33   17   57 1
    34   17   58 1
    35   18   19 1
    36   19   20 2
    37   19   21 1
    38   21   22 1
    39   21   59 1
    40   21   60 1
    41   22   23 1
    42   22   61 1
    43   22   62 1
    44   23   24 2
    45   23   25 am
    46   25   26 1
    47   25   63 1
    48   26   27 1
    49   26   64 1
    50   26   65 1
    51   27   28 1
    52   27   29 1
    53   27   30 1
    54   28   66 1
    55   28   67 1
    56   28   68 1
    57   29   69 1
    58   29   70 1
    59   29   71 1
    60   30   31 1
    61   30   32 1
    62   30   35 1
    63   32   33 2
    64   32   34 1
    65   35   72 1
    66   36   73 1
    67   37   38 1
    68   37   74 1
    69   37   75 1
    70   38   39 1
    71   38   76 1
    72   38   77 1
    73   39   45 1
    74   39   40 2
    75   40   41 1
    76   40   78 1
    77   41   42 2
    78   41   43 1
    79   43   44 2
    80   43   79 1
    81   44   45 1
    82   44   80 1
    83   45   46 1
    84   46   81 1
    85   46   82 1
    86   46   83 1
    87   47   84 1
@<TRIPOS>MOLECULE
ZINC13045680
   53    54     0     0     0
SMALL
USER_CHARGES
3-(2-hydroxyethyl)-2-[2-(isopentylcarbamoylamino)-2-oxo-ethyl]sulfanyl-4-oxo-quinazoline-7-carboxylic acid
@<TRIPOS>ATOM
      1 C1          5.5776   13.5944    3.4691 C.3       1 <0>        -0.1479
      2 C2          5.6146   12.3326    2.6045 C.3       1 <0>        -0.0930
      3 C3          6.9894   11.6722    2.7246 C.3       1 <0>        -0.1539
      4 C4          4.5366   11.3566    3.0801 C.3       1 <0>        -0.1283
      5 C5          4.4898   10.1506    2.1399 C.3       1 <0>         0.1326
      6 N1          3.4576    9.2160    2.5954 N.am      1 <0>        -0.7382
      7 C6          3.2358    8.0735    1.9158 C.2       1 <0>         0.6955
      8 O1          3.8920    7.8185    0.9251 O.2       1 <0>        -0.5292
      9 N2          2.2862    7.2137    2.3348 N.am      1 <0>        -0.6866
     10 C7          2.0643    6.0712    1.6552 C.2       1 <0>         0.5404
     11 O2          2.7189    5.8168    0.6670 O.2       1 <0>        -0.4535
     12 C8          1.0025    5.1099    2.1237 C.3       1 <0>        -0.1613
     13 S1          0.9472    3.6831    1.0114 S.3       1 <0>         0.1027
     14 C9         -0.3402    2.7514    1.7726 C.2       1 <0>         0.3478
     15 N3         -0.9126    3.2381    2.8460 N.2       1 <0>        -0.5231
     16 C10        -1.9038    2.5725    3.4842 C.ar      1 <0>         0.1441
     17 C11        -2.5097    3.0913    4.6321 C.ar      1 <0>        -0.0767
     18 C12        -3.5234    2.3726    5.2531 C.ar      1 <0>        -0.0657
     19 C13        -3.9387    1.1383    4.7365 C.ar      1 <0>        -0.0902
     20 C14        -3.3539    0.6216    3.6162 C.ar      1 <0>        -0.0621
     21 C15        -2.3344    1.3259    2.9767 C.ar      1 <0>        -0.1999
     22 C16        -1.6777    0.8063    1.7666 C.2       1 <0>         0.5572
     23 O3         -2.0034   -0.2613    1.2813 O.2       1 <0>        -0.5193
     24 N4         -0.6984    1.5583    1.2133 N.am      1 <0>        -0.5259
     25 C17        -0.0127    1.0858    0.0080 C.3       1 <0>         0.0916
     26 C18        -0.7527    1.5927   -1.2315 C.3       1 <0>         0.0589
     27 O4         -0.6718    3.0184   -1.2848 O.3       1 <0>        -0.5548
     28 C19        -4.1697    2.9149    6.4685 C.2       1 <0>         0.4882
     29 O5         -3.8135    3.9846    6.9198 O.co2     1 <0>        -0.6224
     30 H1          5.7627   13.3274    4.5095 H         1 <0>         0.0554
     31 H2          6.3456   14.2897    3.1302 H         1 <0>         0.0561
     32 H3          4.5981   14.0649    3.3835 H         1 <0>         0.0553
     33 H4          5.4294   12.5996    1.5640 H         1 <0>         0.0738
     34 H5          7.1746   11.4052    3.7651 H         1 <0>         0.0557
     35 H6          7.0158   10.7733    2.1087 H         1 <0>         0.0591
     36 H7          7.7574   12.3675    2.3858 H         1 <0>         0.0555
     37 H8          3.5679   11.8563    3.0786 H         1 <0>         0.0715
     38 H9          4.7707   11.0209    4.0904 H         1 <0>         0.0717
     39 H10         5.4586    9.6509    2.1414 H         1 <0>         0.0723
     40 H11         4.2558   10.4863    1.1296 H         1 <0>         0.0691
     41 H12         2.9339    9.4195    3.3860 H         1 <0>         0.4003
     42 H13         1.7624    7.4173    3.1255 H         1 <0>         0.4149
     43 H14         0.0338    5.6095    2.1222 H         1 <0>         0.1368
     44 H15         1.2366    4.7741    3.1340 H         1 <0>         0.1346
     45 H16        -2.1926    4.0428    5.0327 H         1 <0>         0.1438
     46 H17        -4.7280    0.5903    5.2294 H         1 <0>         0.1423
     47 H18        -3.6806   -0.3309    3.2258 H         1 <0>         0.1327
     48 H19         0.0021   -0.0041    0.0020 H         1 <0>         0.1164
     49 H20         1.0099    1.4631    0.0003 H         1 <0>         0.1025
     50 H21        -0.2958    1.1691   -2.1259 H         1 <0>         0.0659
     51 H22        -1.7985    1.2898   -1.1795 H         1 <0>         0.0531
     52 H23        -1.1204    3.4096   -2.0469 H         1 <0>         0.3780
     53 O6         -5.1531    2.2223    7.0745 O.co2     1 <0>        -0.7441
@<TRIPOS>BOND
     1    1    2 1
     2    1   30 1
     3    1   31 1
     4    1   32 1
     5    2    3 1
     6    2    4 1
     7    2   33 1
     8    3   34 1
     9    3   35 1
    10    3   36 1
    11    4    5 1
    12    4   37 1
    13    4   38 1
    14    5    6 1
    15    5   39 1
    16    5   40 1
    17    6    7 am
    18    6   41 1
    19    7    8 2
    20    7    9 am
    21    9   10 am
    22    9   42 1
    23   10   11 2
    24   10   12 1
    25   12   13 1
    26   12   43 1
    27   12   44 1
    28   13   14 1
    29   14   24 1
    30   14   15 2
    31   15   16 1
    32   16   21 ar
    33   16   17 ar
    34   17   18 ar
    35   17   45 1
    36   18   19 ar
    37   18   28 1
    38   19   20 ar
    39   19   46 1
    40   20   21 ar
    41   20   47 1
    42   21   22 1
    43   22   23 2
    44   22   24 am
    45   24   25 1
    46   25   26 1
    47   25   48 1
    48   25   49 1
    49   26   27 1
    50   26   50 1
    51   26   51 1
    52   27   52 1
    53   28   29 2
    54   28   53 1
@<TRIPOS>MOLECULE
ZINC13245010
   54    55     0     0     0
SMALL
USER_CHARGES
(2R)-2-[[2-[(4-chloro-2-methoxy-5-methyl-phenyl)amino]-2-oxo-ethyl]carbamoylamino]-4-oxo-4-pyrrolidin-1-yl-butanoic acid
@<TRIPOS>ATOM
      1 C1          3.4019    2.1062  -12.6123 C.3       1 <0>        -0.1153
      2 C2          4.3263    1.0060  -12.1584 C.ar      1 <0>        -0.0903
      3 C3          4.9303    1.0810  -10.9172 C.ar      1 <0>        -0.0752
      4 C4          5.7808    0.0692  -10.4978 C.ar      1 <0>         0.1325
      5 C5          6.0285   -1.0189  -11.3321 C.ar      1 <0>         0.1102
      6 C6          5.4159   -1.0902  -12.5722 C.ar      1 <0>        -0.1806
      7 C7          4.5682   -0.0770  -12.9845 C.ar      1 <0>        -0.0150
      8 Cl1         3.8070   -0.1648  -14.5423 Cl        1 <0>        -0.0662
      9 O1          6.8657   -2.0110  -10.9276 O.3       1 <0>        -0.3114
     10 C8          7.0727   -3.0954  -11.8350 C.3       1 <0>         0.0267
     11 N1          6.3945    0.1438   -9.2398 N.am      1 <0>        -0.6621
     12 C9          5.7380    0.6984   -8.2015 C.2       1 <0>         0.5153
     13 O2          4.6496    1.2054   -8.3733 O.2       1 <0>        -0.5173
     14 C10         6.3563    0.6886   -6.8272 C.3       1 <0>         0.1287
     15 N2          5.4526    1.3469   -5.8805 N.am      1 <0>        -0.7435
     16 C11         5.7993    1.4562   -4.5827 C.2       1 <0>         0.7227
     17 O3          6.8622    1.0085   -4.1976 O.2       1 <0>        -0.5935
     18 N3          4.9680    2.0618   -3.7118 N.am      1 <0>        -0.7036
     19 C12         5.3449    2.1806   -2.3011 C.3       1 <0>         0.1388
     20 H1          5.9042    1.2953   -1.9986 H         1 <0>         0.0963
     21 C13         4.0830    2.3039   -1.4447 C.3       1 <0>        -0.1260
     22 C14         3.2858    1.0285   -1.5383 C.2       1 <0>         0.5269
     23 O4          3.6874    0.1112   -2.2226 O.2       1 <0>        -0.5256
     24 N4          2.1266    0.9072   -0.8615 N.am      1 <0>        -0.6272
     25 C15         1.5239    1.9388    0.0022 C.3       1 <0>         0.0965
     26 C16         0.0114    1.6047    0.0227 C.3       1 <0>        -0.1331
     27 C17         0.0351    0.0533    0.0255 C.3       1 <0>        -0.1319
     28 C18         1.2531   -0.2754   -0.8633 C.3       1 <0>         0.1070
     29 C19         6.2022    3.4055   -2.1117 C.2       1 <0>         0.4590
     30 O5          6.4708    4.1071   -3.0579 O.co2     1 <0>        -0.6230
     31 H2          3.9757    2.8684  -13.1395 H         1 <0>         0.0747
     32 H3          2.6463    1.6932  -13.2806 H         1 <0>         0.0724
     33 H4          2.9152    2.5527  -11.7452 H         1 <0>         0.0739
     34 H5          4.7395    1.9274  -10.2740 H         1 <0>         0.1588
     35 H6          5.6027   -1.9346  -13.2190 H         1 <0>         0.1423
     36 H7          7.7596   -3.8154  -11.3901 H         1 <0>         0.1040
     37 H8          6.1199   -3.5825  -12.0424 H         1 <0>         0.0572
     38 H9          7.4964   -2.7155  -12.7646 H         1 <0>         0.0573
     39 H10         7.2917   -0.2037   -9.1164 H         1 <0>         0.4195
     40 H11         7.3068    1.2214   -6.8526 H         1 <0>         0.1006
     41 H12         6.5253   -0.3411   -6.5122 H         1 <0>         0.0993
     42 H13         4.6047    1.7041   -6.1877 H         1 <0>         0.4022
     43 H14         4.1201    2.4190   -4.0190 H         1 <0>         0.3852
     44 H15         3.4794    3.1370   -1.8049 H         1 <0>         0.0910
     45 H16         4.3643    2.4813   -0.4066 H         1 <0>         0.1170
     46 H17         1.6878    2.9302   -0.4201 H         1 <0>         0.0801
     47 H18         1.9389    1.8808    1.0085 H         1 <0>         0.0709
     48 H19        -0.4851    1.9863   -0.8695 H         1 <0>         0.0754
     49 H20        -0.4616    1.9899    0.9260 H         1 <0>         0.0830
     50 H21         0.1809   -0.3283    1.0361 H         1 <0>         0.0751
     51 H22        -0.8800   -0.3471   -0.4108 H         1 <0>         0.0791
     52 H23         1.7889   -1.1326   -0.4556 H         1 <0>         0.0642
     53 H24         0.9231   -0.4910   -1.8795 H         1 <0>         0.0639
     54 O6          6.6674    3.7169   -0.8917 O.co2     1 <0>        -0.7672
@<TRIPOS>BOND
     1    1    2 1
     2    1   31 1
     3    1   32 1
     4    1   33 1
     5    2    7 ar
     6    2    3 ar
     7    3    4 ar
     8    3   34 1
     9    4    5 ar
    10    4   11 1
    11    5    6 ar
    12    5    9 1
    13    6    7 ar
    14    6   35 1
    15    7    8 1
    16    9   10 1
    17   10   36 1
    18   10   37 1
    19   10   38 1
    20   11   12 am
    21   11   39 1
    22   12   13 2
    23   12   14 1
    24   14   15 1
    25   14   40 1
    26   14   41 1
    27   15   16 am
    28   15   42 1
    29   16   17 2
    30   16   18 am
    31   18   19 1
    32   18   43 1
    33   19   20 1
    34   19   21 1
    35   19   29 1
    36   21   22 1
    37   21   44 1
    38   21   45 1
    39   22   23 2
    40   22   24 am
    41   24   28 1
    42   24   25 1
    43   25   26 1
    44   25   46 1
    45   25   47 1
    46   26   27 1
    47   26   48 1
    48   26   49 1
    49   27   28 1
    50   27   50 1
    51   27   51 1
    52   28   52 1
    53   28   53 1
    54   29   30 2
    55   29   54 1
@<TRIPOS>MOLECULE
ZINC08655814
   42    43     0     0     0
SMALL
USER_CHARGES
2,2,2-trifluoro-N-[2-[5-oxo-3-[2-oxo-2-(vinylcarbamoylamino)ethyl]sulfanyl-2H-1,2,4-triazin-6-yl]phenyl]acetamide
@<TRIPOS>ATOM
      1 C1        -10.9833    2.7126   -0.1941 C.2       1 <0>        -0.2775
      2 C2         -9.9282    1.9209   -0.1898 C.2       1 <0>         0.1075
      3 N1         -8.6479    2.4673   -0.1638 N.am      1 <0>        -0.6923
      4 C3         -7.5699    1.6583   -0.1595 C.2       1 <0>         0.6979
      5 O1         -7.7155    0.4518   -0.1782 O.2       1 <0>        -0.5231
      6 N2         -6.3305    2.1872   -0.1343 N.am      1 <0>        -0.6990
      7 C4         -5.2526    1.3782   -0.1299 C.2       1 <0>         0.5388
      8 O2         -5.3978    0.1747   -0.1487 O.2       1 <0>        -0.4541
      9 C5         -3.8667    1.9696   -0.1017 C.3       1 <0>        -0.1424
     10 S1         -2.6419    0.6370   -0.1025 S.3       1 <0>         0.0422
     11 C6         -1.1575    1.5857   -0.0680 C.ar      1 <0>         0.2959
     12 N3          0.0401    0.9460   -0.0596 N.ar      1 <0>        -0.4250
     13 N4          1.2377    1.6731   -0.0376 N.ar      1 <0>        -0.2119
     14 C7          1.1917    2.9868   -0.0200 C.ar      1 <0>        -0.0449
     15 C8         -0.1241    3.6489   -0.0241 C.ar      1 <0>         0.4992
     16 O3         -0.2010    4.8673   -0.0086 O.3       1 <0>        -0.5672
     17 N5         -1.2332    2.9029   -0.0455 N.ar      1 <0>        -0.6605
     18 C9          2.4385    3.7856    0.0039 C.ar      1 <0>        -0.0069
     19 C10         2.6193    4.8292   -0.9023 C.ar      1 <0>        -0.0654
     20 C11         3.7811    5.5730   -0.8729 C.ar      1 <0>        -0.1323
     21 C12         4.7737    5.2812    0.0468 C.ar      1 <0>        -0.1074
     22 C13         4.6087    4.2463    0.9470 C.ar      1 <0>        -0.1366
     23 C14         3.4442    3.4925    0.9331 C.ar      1 <0>         0.1528
     24 N6          3.2755    2.4456    1.8427 N.am      1 <0>        -0.6334
     25 C15         4.3526    1.8249    2.3632 C.2       1 <0>         0.4843
     26 O4          5.4679    2.2207    2.0976 O.2       1 <0>        -0.4753
     27 C16         4.1714    0.6390    3.2752 C.3       1 <0>         0.4534
     28 F1          5.4241    0.1699    3.6848 F         1 <0>        -0.1552
     29 F2          3.4276    1.0224    4.3964 F         1 <0>        -0.1695
     30 F3          3.4941   -0.3762    2.5912 F         1 <0>        -0.1567
     31 H1        -11.9948    2.2808   -0.2146 H         1 <0>         0.1190
     32 H2        -10.8516    3.8046   -0.1771 H         1 <0>         0.0993
     33 H3        -10.0599    0.8289   -0.2068 H         1 <0>         0.1507
     34 H4         -8.5162    3.5593   -0.1468 H         1 <0>         0.4275
     35 H5         -6.1987    3.2791   -0.1173 H         1 <0>         0.4394
     36 H6         -3.7202    2.6028   -0.9891 H         1 <0>         0.1293
     37 H7         -3.7460    2.5780    0.8068 H         1 <0>         0.1297
     38 H8          1.8493    5.0577   -1.6242 H         1 <0>         0.1277
     39 H9          3.9185    6.3835   -1.5733 H         1 <0>         0.1229
     40 H10         5.6821    5.8653    0.0604 H         1 <0>         0.1237
     41 H11         5.3870    4.0238    1.6619 H         1 <0>         0.1493
     42 H12         2.2635    2.1279    2.1341 H         1 <0>         0.4461
@<TRIPOS>BOND
     1    1    2 2
     2    1   31 1
     3    1   32 1
     4    2    3 1
     5    2   33 1
     6    3    4 am
     7    3   34 1
     8    4    5 2
     9    4    6 am
    10    6    7 am
    11    6   35 1
    12    7    8 2
    13    7    9 1
    14    9   10 1
    15    9   36 1
    16    9   37 1
    17   10   11 1
    18   11   17 ar
    19   11   12 ar
    20   12   13 ar
    21   13   14 ar
    22   14   15 ar
    23   14   18 1
    24   15   16 1
    25   15   17 ar
    26   18   23 ar
    27   18   19 ar
    28   19   20 ar
    29   19   38 1
    30   20   21 ar
    31   20   39 1
    32   21   22 ar
    33   21   40 1
    34   22   23 ar
    35   22   41 1
    36   23   24 1
    37   24   25 am
    38   24   42 1
    39   25   26 2
    40   25   27 1
    41   27   28 1
    42   27   29 1
    43   27   30 1
@<TRIPOS>MOLECULE
ZINC39691824
   59    62     0     0     0
SMALL
USER_CHARGES

@<TRIPOS>ATOM
      1 C1         -1.1616   -2.3386    2.0100 C.3       1 <0>        -0.0794
      2 C2         -0.4880   -1.6455    0.8538 C.2       1 <0>         0.0216
      3 C3         -1.0780   -0.7955   -0.0058 C.2       1 <0>        -0.1920
      4 C4         -0.0840   -0.3859   -0.9240 C.2       1 <0>        -0.2000
      5 C5          1.0540   -1.0100   -0.5706 C.2       1 <0>        -0.0390
      6 O1          0.8047   -1.7671    0.5103 O.3       1 <0>        -0.1725
      7 C6         -2.5217   -0.3635    0.0070 C.3       1 <0>         0.2579
      8 H1         -2.8745   -0.2454    1.0316 H         1 <0>         0.1199
      9 N1         -2.6922    0.9036   -0.7511 N.3       1 <0>        -0.5023
     10 N2         -4.1109    0.8702   -1.1394 N.3       1 <0>        -0.4927
     11 C7         -4.3744   -0.5520   -1.4561 C.3       1 <0>         0.2007
     12 H2         -4.2756   -0.7205   -2.5284 H         1 <0>         0.1245
     13 N3         -3.3621   -1.3422   -0.7210 N.3       1 <0>        -0.5317
     14 C8         -2.5518   -2.1479   -1.6443 C.3       1 <0>         0.0802
     15 C9         -3.4170   -3.2055   -2.2799 C.2       1 <0>        -0.1428
     16 C10        -3.4871   -3.2974   -3.5847 C.2       1 <0>        -0.1908
     17 S1         -6.0402   -1.0133   -0.9057 S.3       1 <0>        -0.1154
     18 C11        -6.0242   -0.6712    0.8757 C.3       1 <0>        -0.1257
     19 C12        -7.3676   -1.0156    1.4655 C.2       1 <0>         0.5289
     20 O2         -8.2490   -1.4492    0.7541 O.2       1 <0>        -0.5290
     21 N4         -7.5896   -0.8419    2.7834 N.am      1 <0>        -0.6818
     22 C13        -8.8955   -1.1767    3.3567 C.3       1 <0>         0.0879
     23 H3         -9.3061   -2.0456    2.8424 H         1 <0>         0.0816
     24 C14        -8.7330   -1.4944    4.8445 C.3       1 <0>        -0.0417
     25 C15        -7.8969   -2.7380    5.0042 C.2       1 <0>        -0.1499
     26 C16        -6.4338   -2.8070    5.0289 C.ar      1 <0>        -0.0926
     27 C17        -5.4158   -1.8575    4.9259 C.ar      1 <0>        -0.0688
     28 C18        -4.1094   -2.2539    4.9888 C.ar      1 <0>        -0.1506
     29 C19        -3.7864   -3.5935    5.1540 C.ar      1 <0>        -0.1029
     30 C20        -4.7754   -4.5473    5.2579 C.ar      1 <0>        -0.1322
     31 C21        -6.1116   -4.1663    5.1969 C.ar      1 <0>         0.0955
     32 N5         -7.2993   -4.8594    5.2674 N.pl3     1 <0>        -0.5975
     33 C22        -8.3515   -3.9917    5.1567 C.2       1 <0>         0.0451
     34 C23        -9.8312   -0.0069    3.1921 C.2       1 <0>         0.4916
     35 O3        -11.0297   -0.1969    3.0734 O.co2     1 <0>        -0.6929
     36 O4         -9.3897    1.1295    3.1776 O.co2     1 <0>        -0.6894
     37 H4         -0.4359   -2.9615    2.5330 H         1 <0>         0.0767
     38 H5         -1.5624   -1.5931    2.6969 H         1 <0>         0.0893
     39 H6         -1.9737   -2.9623    1.6365 H         1 <0>         0.0931
     40 H7         -0.2137    0.2968   -1.7507 H         1 <0>         0.1466
     41 H8          2.0073   -0.9152   -1.0691 H         1 <0>         0.2036
     42 H9         -2.0951    0.9216   -1.5643 H         1 <0>         0.3527
     43 H10        -4.7001    1.1876   -0.3842 H         1 <0>         0.3642
     44 H11        -2.1364   -1.5041   -2.4196 H         1 <0>         0.0396
     45 H12        -1.7403   -2.6244   -1.0944 H         1 <0>         0.0912
     46 H13        -3.9792   -3.8878   -1.6595 H         1 <0>         0.1189
     47 H14        -4.1071   -4.0554   -4.0402 H         1 <0>         0.1018
     48 H15        -2.9248   -2.6151   -4.2051 H         1 <0>         0.0911
     49 H16        -5.2521   -1.2735    1.3544 H         1 <0>         0.1100
     50 H17        -5.8151    0.3857    1.0409 H         1 <0>         0.1002
     51 H18        -6.8846   -0.4952    3.3524 H         1 <0>         0.3891
     52 H19        -8.2409   -0.6592    5.3428 H         1 <0>         0.0729
     53 H20        -9.7142   -1.6566    5.2907 H         1 <0>         0.0854
     54 H21        -5.6596   -0.8134    4.7965 H         1 <0>         0.1177
     55 H22        -3.3221   -1.5189    4.9090 H         1 <0>         0.1180
     56 H23        -2.7494   -3.8915    5.2012 H         1 <0>         0.1194
     57 H24        -4.5138   -5.5873    5.3858 H         1 <0>         0.1140
     58 H25        -9.3936   -4.2742    5.1848 H         1 <0>         0.1701
     59 H26        -7.3783   -5.8193    5.3826 H         1 <0>         0.4124
@<TRIPOS>BOND
     1    1    2 1
     2    1   37 1
     3    1   38 1
     4    1   39 1
     5    2    6 1
     6    2    3 2
     7    3    4 1
     8    3    7 1
     9    4    5 2
    10    4   40 1
    11    5    6 1
    12    5   41 1
    13    7    8 1
    14    7   13 1
    15    7    9 1
    16    9   10 1
    17    9   42 1
    18   10   11 1
    19   10   43 1
    20   11   12 1
    21   11   13 1
    22   11   17 1
    23   13   14 1
    24   14   15 1
    25   14   44 1
    26   14   45 1
    27   15   16 2
    28   15   46 1
    29   16   47 1
    30   16   48 1
    31   17   18 1
    32   18   19 1
    33   18   49 1
    34   18   50 1
    35   19   20 2
    36   19   21 am
    37   21   22 1
    38   21   51 1
    39   22   23 1
    40   22   24 1
    41   22   34 1
    42   24   52 1
    43   24   53 1
    44   24   25 1
    45   25   26 1
    46   25   33 2
    47   26   27 ar
    48   26   31 ar
    49   27   28 ar
    50   27   54 1
    51   28   29 ar
    52   28   55 1
    53   29   30 ar
    54   29   56 1
    55   30   31 ar
    56   30   57 1
    57   31   32 1
    58   32   59 1
    59   32   33 1
    60   33   58 1
    61   34   35 2
    62   34   36 1
@<TRIPOS>MOLECULE
ZINC43769661
   57    60     0     0     0
SMALL
USER_CHARGES

@<TRIPOS>ATOM
      1 C1          1.1797   -2.5252   -0.3586 C.3       1 <0>        -0.1407
      2 C2          0.3614   -2.0163    0.8298 C.3       1 <0>        -0.0551
      3 H1          0.4658   -2.6911    1.6794 H         1 <0>         0.0794
      4 C3         -1.1187   -1.8702    0.4391 C.3       1 <0>         0.0556
      5 H2         -1.3490   -2.2309   -0.5633 H         1 <0>         0.1368
      6 C4         -2.1042   -2.3110    1.5186 C.3       1 <0>        -0.1851
      7 H3         -1.6378   -2.7405    2.4053 H         1 <0>         0.1340
      8 C5         -2.3624   -0.8306    1.6076 C.2       1 <0>         0.5001
      9 O1         -3.1425   -0.1847    2.2755 O.2       1 <0>        -0.4323
     10 N1         -1.4326   -0.4568    0.6791 N.am      1 <0>        -0.4626
     11 C6         -0.2674    0.2107    1.0923 C.2       1 <0>         0.1800
     12 C7          0.7954   -0.6189    1.2095 C.2       1 <0>        -0.2394
     13 S1          2.4160   -0.1504    1.7182 S.3       1 <0>         0.0351
     14 C8          2.6419   -1.0026    3.3036 C.3       1 <0>        -0.1330
     15 H4          1.8144   -0.7754    3.9758 H         1 <0>         0.1289
     16 C9          3.9853   -0.5902    3.9479 C.3       1 <0>        -0.1055
     17 C10         4.5010   -1.9192    4.5547 C.3       1 <0>         0.0149
     18 H5          4.0219   -2.1157    5.5138 H         1 <0>         0.1687
     19 N2          4.0943   -2.9328    3.5480 N.4       1 <0>        -0.4990
     20 C11         2.7492   -2.5228    3.0827 C.3       1 <0>        -0.0063
     21 C12         5.9999   -1.8878    4.7075 C.2       1 <0>         0.4992
     22 O2          6.7048   -2.4372    3.8875 O.2       1 <0>        -0.4946
     23 N3          6.5573   -1.2493    5.7554 N.am      1 <0>        -0.6385
     24 C13         7.9425   -1.2991    5.9491 C.ar      1 <0>         0.0915
     25 C14         8.4625   -1.3526    7.2372 C.ar      1 <0>        -0.1399
     26 C15         9.8298   -1.4020    7.4347 C.ar      1 <0>        -0.1221
     27 C16        10.6885   -1.3990    6.3545 C.ar      1 <0>        -0.0840
     28 C17        10.1764   -1.3459    5.0557 C.ar      1 <0>        -0.1163
     29 C18         8.7950   -1.3009    4.8568 C.ar      1 <0>        -0.0745
     30 C19        11.0918   -1.3420    3.8984 C.2       1 <0>         0.5181
     31 O3         12.3011   -1.3853    4.0751 O.co2     1 <0>        -0.6815
     32 O4         10.6411   -1.2955    2.7625 O.co2     1 <0>        -0.6802
     33 C20        -0.2113    1.5944    1.3571 C.2       1 <0>         0.4394
     34 O5          0.9048    2.1346    1.8462 O.co2     1 <0>        -0.6452
     35 O6         -1.2744    2.3623    1.1184 O.co2     1 <0>        -0.6613
     36 C21        -3.2874   -3.1292    0.9975 C.3       1 <0>         0.1268
     37 H6         -2.9187   -4.0342    0.5147 H         1 <0>         0.1161
     38 C22        -4.1985   -3.5096    2.1662 C.3       1 <0>        -0.1888
     39 O7         -4.0247   -2.3515    0.0522 O.3       1 <0>        -0.5559
     40 H7          2.2296   -2.5944   -0.0738 H         1 <0>         0.0635
     41 H8          0.8177   -3.5100   -0.6539 H         1 <0>         0.0644
     42 H9          1.0748   -1.8338   -1.1947 H         1 <0>         0.0678
     43 H10         4.6769   -0.2170    3.1925 H         1 <0>         0.1161
     44 H11         3.8265    0.1541    4.7282 H         1 <0>         0.1352
     45 H12         4.7441   -2.9368    2.7761 H         1 <0>         0.4422
     46 H13         1.9818   -3.0372    3.6612 H         1 <0>         0.1353
     47 H14         2.6360   -2.7530    2.0233 H         1 <0>         0.1437
     48 H15         5.9983   -0.7552    6.3754 H         1 <0>         0.4135
     49 H16         7.7959   -1.3553    8.0868 H         1 <0>         0.1184
     50 H17        10.2274   -1.4427    8.4380 H         1 <0>         0.1236
     51 H18        11.7561   -1.4372    6.5131 H         1 <0>         0.1321
     52 H19         8.3926   -1.2638    3.8552 H         1 <0>         0.1434
     53 H20        -4.5672   -2.6045    2.6491 H         1 <0>         0.0664
     54 H21        -5.0415   -4.0924    1.7950 H         1 <0>         0.0713
     55 H22        -3.6361   -4.1027    2.8873 H         1 <0>         0.0676
     56 H23        -4.3834   -1.5295    0.4137 H         1 <0>         0.3814
     57 H24         4.0510   -3.8471    3.9727 H         1 <0>         0.4314
@<TRIPOS>BOND
     1    1    2 1
     2    1   40 1
     3    1   41 1
     4    1   42 1
     5    2    3 1
     6    2   12 1
     7    2    4 1
     8    4    5 1
     9    4   10 1
    10    4    6 1
    11    6    7 1
    12    6    8 1
    13    6   36 1
    14    8    9 2
    15    8   10 am
    16   10   11 1
    17   11   12 2
    18   11   33 1
    19   12   13 1
    20   13   14 1
    21   14   15 1
    22   14   20 1
    23   14   16 1
    24   16   17 1
    25   16   43 1
    26   16   44 1
    27   17   18 1
    28   17   19 1
    29   17   21 1
    30   19   20 1
    31   19   45 1
    32   19   57 1
    33   20   46 1
    34   20   47 1
    35   21   22 2
    36   21   23 am
    37   23   24 1
    38   23   48 1
    39   24   29 ar
    40   24   25 ar
    41   25   26 ar
    42   25   49 1
    43   26   27 ar
    44   26   50 1
    45   27   28 ar
    46   27   51 1
    47   28   29 ar
    48   28   30 1
    49   29   52 1
    50   30   31 2
    51   30   32 1
    52   33   34 2
    53   33   35 1
    54   36   37 1
    55   36   38 1
    56   36   39 1
    57   38   53 1
    58   38   54 1
    59   38   55 1
    60   39   56 1
@<TRIPOS>MOLECULE
ZINC26571835
   35    38     0     0     0
SMALL
USER_CHARGES
6-[4-(2-methylthiazol-4-yl)-1H-pyrazol-3-yl]-2,3-dihydro-1,4-benzodioxin-5-ol
@<TRIPOS>ATOM
      1 C1         -4.3487    4.5499   -3.5321 C.3       1 <0>        -0.0712
      2 C2         -3.4054    3.4341   -3.1629 C.2       1 <0>         0.1035
      3 N1         -2.5313    3.3867   -2.1864 N.2       1 <0>        -0.4942
      4 C3         -1.7695    2.3221   -1.9927 C.2       1 <0>         0.1519
      5 C4         -1.9152    1.2652   -2.8490 C.2       1 <0>        -0.2262
      6 S1         -3.2016    1.8863   -3.9225 S.3       1 <0>         0.0266
      7 C5         -0.7829    2.2785   -0.8841 C.2       1 <0>        -0.1724
      8 C6          0.1239    1.2893   -0.6516 C.2       1 <0>         0.0685
      9 N2          0.8347    1.6291    0.4450 N.pl3     1 <0>        -0.4798
     10 H1          1.6317    0.9653    0.8113 H         1 <0>         0.4745
     11 N3          0.3596    2.8590    0.9158 N.2       1 <0>        -0.2558
     12 C7         -0.6147    3.2576    0.1269 C.2       1 <0>         0.1591
     13 C8         -1.3945    4.5106    0.2672 C.ar      1 <0>        -0.0539
     14 C9         -2.7878    4.4737    0.2425 C.ar      1 <0>         0.0008
     15 C10        -3.5112    5.6404    0.3721 C.ar      1 <0>        -0.1658
     16 C11        -2.8586    6.8574    0.5288 C.ar      1 <0>         0.1027
     17 C12        -1.4708    6.9038    0.5569 C.ar      1 <0>        -0.0588
     18 C13        -0.7355    5.7317    0.4303 C.ar      1 <0>         0.2019
     19 O1          0.6231    5.7735    0.4605 O.3       1 <0>        -0.4880
     20 O2         -0.8154    8.0877    0.7141 O.3       1 <0>        -0.3174
     21 C14        -1.5705    9.2789    0.4675 C.3       1 <0>         0.0243
     22 C15        -2.9239    9.1446    1.1785 C.3       1 <0>         0.0186
     23 O3         -3.5954    7.9958    0.6506 O.3       1 <0>        -0.3038
     24 H2         -4.2128    5.3905   -2.8357 H         1 <0>         0.0968
     25 H3         -5.3858    4.1882   -3.4722 H         1 <0>         0.0910
     26 H4         -4.1360    4.8855   -4.5578 H         1 <0>         0.0894
     27 H5         -1.3973    0.3177   -2.8697 H         1 <0>         0.1925
     28 H6          0.2544    0.3945   -1.2421 H         1 <0>         0.1793
     29 H7         -3.3008    3.5310    0.1215 H         1 <0>         0.1319
     30 H8         -4.5905    5.6083    0.3520 H         1 <0>         0.1355
     31 H9          1.1410    6.7354    0.5890 H         1 <0>         0.4352
     32 H10        -1.0222   10.1483    0.8594 H         1 <0>         0.1232
     33 H11        -1.7226    9.3991   -0.6153 H         1 <0>         0.0767
     34 H12        -2.7597    9.0227    2.2593 H         1 <0>         0.0794
     35 H13        -3.5240   10.0488    0.9985 H         1 <0>         0.1241
@<TRIPOS>BOND
     1    1    2 1
     2    1   24 1
     3    1   25 1
     4    1   26 1
     5    2    6 1
     6    2    3 2
     7    3    4 1
     8    4    5 2
     9    4    7 1
    10    5    6 1
    11    5   27 1
    12    7   12 1
    13    7    8 2
    14    8    9 1
    15    8   28 1
    16    9   10 1
    17    9   11 1
    18   11   12 2
    19   12   13 1
    20   13   18 ar
    21   13   14 ar
    22   14   15 ar
    23   14   29 1
    24   15   16 ar
    25   15   30 1
    26   16   23 1
    27   16   17 ar
    28   17   18 ar
    29   17   20 1
    30   18   19 1
    31   19   31 1
    32   20   21 1
    33   21   22 1
    34   21   32 1
    35   21   33 1
    36   22   23 1
    37   22   34 1
    38   22   35 1
@<TRIPOS>MOLECULE
ZINC39232521
   38    42     0     0     0
SMALL
USER_CHARGES

@<TRIPOS>ATOM
      1 C1         -0.0187    1.5258    0.0104 C.3       1 <0>        -0.1493
      2 C2          0.0021   -0.0041    0.0020 C.3       1 <0>        -0.0932
      3 H1          0.5125   -0.3543   -0.8952 H         1 <0>         0.0759
      4 C3         -1.4350   -0.5322    0.0084 C.3       1 <0>        -0.1122
      5 C4         -1.4082   -2.0448   -0.2515 C.3       1 <0>        -0.0580
      6 C5         -0.3825   -2.6641    0.6456 C.2       1 <0>        -0.0601
      7 C6          0.6133   -2.0248    1.3109 C.2       1 <0>        -0.1427
      8 C7          0.7458   -0.5087    1.2391 C.3       1 <0>        -0.0442
      9 C8          1.5562   -2.8674    2.0443 C.2       1 <0>        -0.1085
     10 C9          2.8748   -2.7744    2.3410 C.2       1 <0>         0.2873
     11 N1          3.7502   -1.7337    2.2851 N.pl3     1 <0>        -0.5280
     12 C10         4.9118   -2.1016    2.7385 C.cat     1 <0>         0.4862
     13 N2          4.8685   -3.4185    3.1122 N.pl3     1 <0>        -0.4018
     14 N3          3.5781   -3.8852    2.8058 N.pl3     1 <0>        -0.3388
     15 C11         3.0123   -5.1488    2.8784 C.2       1 <0>         0.3996
     16 N4          3.5418   -6.3346    3.0645 N.2       1 <0>        -0.3040
     17 N5          2.5122   -7.2836    3.0272 N.2       1 <0>        -0.3247
     18 C12         1.3820   -6.6484    2.8280 C.2       1 <0>         0.4283
     19 S1         -0.2123   -7.3866    2.6934 S.3       1 <0>        -0.6999
     20 N6          1.6585   -5.3167    2.7444 N.pl3     1 <0>        -0.4948
     21 C13         0.8355   -4.1256    2.5651 C.3       1 <0>         0.2019
     22 H2          0.2644   -3.9084    3.4678 H         1 <0>         0.1423
     23 S2         -0.2465   -4.3836    1.0969 S.3       1 <0>        -0.0461
     24 C14         6.1245   -1.2125    2.8373 C.3       1 <0>        -0.1243
     25 H3          1.0039    1.9031    0.0027 H         1 <0>         0.0537
     26 H4         -0.5459    1.8868   -0.8726 H         1 <0>         0.0611
     27 H5         -0.5289    1.8773    0.9072 H         1 <0>         0.0581
     28 H6         -1.8918   -0.3363    0.9785 H         1 <0>         0.0720
     29 H7         -2.0095   -0.0372   -0.7746 H         1 <0>         0.0785
     30 H8         -2.3881   -2.4707   -0.0359 H         1 <0>         0.0955
     31 H9         -1.1454   -2.2328   -1.2925 H         1 <0>         0.0940
     32 H10         1.7994   -0.2387    1.1669 H         1 <0>         0.0510
     33 H11         0.3128   -0.0605    2.1334 H         1 <0>         0.0823
     34 H12         5.5890   -3.9304    3.5117 H         1 <0>         0.4847
     35 H13         6.1352   -0.7192    3.8092 H         1 <0>         0.1421
     36 H14         7.0264   -1.8144    2.7255 H         1 <0>         0.1323
     37 H15         6.0892   -0.4609    2.0487 H         1 <0>         0.1340
     38 H16         3.5383   -0.8466    1.9549 H         1 <0>         0.4699
@<TRIPOS>BOND
     1    1    2 1
     2    1   25 1
     3    1   26 1
     4    1   27 1
     5    2    3 1
     6    2    8 1
     7    2    4 1
     8    4    5 1
     9    4   28 1
    10    4   29 1
    11    5    6 1
    12    5   30 1
    13    5   31 1
    14    6   23 1
    15    6    7 2
    16    7    8 1
    17    7    9 1
    18    8   32 1
    19    8   33 1
    20    9   21 1
    21    9   10 2
    22   10   14 1
    23   10   11 1
    24   11   12 2
    25   11   38 1
    26   12   13 1
    27   12   24 1
    28   13   14 1
    29   13   34 1
    30   14   15 1
    31   15   20 1
    32   15   16 2
    33   16   17 1
    34   17   18 2
    35   18   19 1
    36   18   20 1
    37   20   21 1
    38   21   22 1
    39   21   23 1
    40   24   35 1
    41   24   36 1
    42   24   37 1
@<TRIPOS>MOLECULE
ZINC45666037
   44    46     0     0     0
SMALL
USER_CHARGES

@<TRIPOS>ATOM
      1 C1          0.2209    1.3067    0.0513 C.ar      1 <0>        -0.1581
      2 C2          1.4532    1.9324    0.0489 C.ar      1 <0>         0.1019
      3 N1          2.5675    1.2276    0.0267 N.ar      1 <0>        -0.4849
      4 C3          2.5538   -0.0909    0.0065 C.ar      1 <0>         0.0989
      5 C4          1.3590   -0.7855    0.0080 C.ar      1 <0>        -0.1553
      6 C5          0.1665   -0.0786    0.0305 C.ar      1 <0>        -0.0413
      7 C6         -1.1573   -0.7987    0.0329 C.3       1 <0>         0.1948
      8 H1         -1.9446   -0.1280   -0.3112 H         1 <0>         0.0898
      9 C7         -1.4796   -1.2998    1.4565 C.3       1 <0>        -0.1230
     10 C8         -2.1301   -2.6846    1.1985 C.3       1 <0>        -0.1298
     11 C9         -1.3215   -3.1851   -0.0243 C.3       1 <0>         0.0937
     12 N2         -1.0867   -1.9777   -0.8427 N.am      1 <0>        -0.6307
     13 C10        -0.8479   -1.9579   -2.1690 C.2       1 <0>         0.7173
     14 O1         -0.6685   -0.8988   -2.7387 O.2       1 <0>        -0.5619
     15 N3         -0.8078   -3.1121   -2.8638 N.am      1 <0>        -0.7361
     16 C11        -0.5482   -3.0906   -4.3054 C.3       1 <0>         0.1525
     17 H2         -1.1261   -2.2914   -4.7697 H         1 <0>         0.1188
     18 C12        -0.9446   -4.4354   -4.9195 C.3       1 <0>        -0.1252
     19 C13        -0.6622   -5.5716   -3.9534 C.3       1 <0>        -0.1247
     20 C14         0.8149   -5.7947   -3.6846 C.3       1 <0>        -0.1455
     21 C15         1.4156   -4.6107   -2.9244 C.3       1 <0>         0.0941
     22 N4          1.8369   -3.5906   -3.8982 N.am      1 <0>        -0.7211
     23 C16         0.9279   -2.8610   -4.5532 C.2       1 <0>         0.5137
     24 O2          1.2831   -2.0188   -5.3503 O.2       1 <0>        -0.5324
     25 H3         -0.6882    1.8894    0.0737 H         1 <0>         0.1343
     26 H4          1.5041    3.0111    0.0650 H         1 <0>         0.1564
     27 H5          3.4870   -0.6342   -0.0117 H         1 <0>         0.1518
     28 H6          1.3543   -1.8654   -0.0086 H         1 <0>         0.1242
     29 H7         -0.5676   -1.4055    2.0438 H         1 <0>         0.0822
     30 H8         -2.1827   -0.6296    1.9512 H         1 <0>         0.0910
     31 H9         -1.9938   -3.3458    2.0543 H         1 <0>         0.0903
     32 H10        -3.1867   -2.5800    0.9519 H         1 <0>         0.0816
     33 H11        -0.3738   -3.6163    0.2984 H         1 <0>         0.0708
     34 H12        -1.9000   -3.9171   -0.5878 H         1 <0>         0.0748
     35 H13        -0.9509   -3.9570   -2.4093 H         1 <0>         0.4005
     36 H14        -2.0084   -4.4221   -5.1567 H         1 <0>         0.0874
     37 H15        -0.3753   -4.5934   -5.8355 H         1 <0>         0.0858
     38 H16        -1.1592   -5.3558   -3.0076 H         1 <0>         0.0599
     39 H17        -1.0838   -6.4895   -4.3630 H         1 <0>         0.0783
     40 H18         0.9384   -6.7010   -3.0919 H         1 <0>         0.0813
     41 H19         1.3378   -5.9138   -4.6335 H         1 <0>         0.0756
     42 H20         0.6671   -4.1890   -2.2536 H         1 <0>         0.0827
     43 H21         2.2787   -4.9455   -2.3490 H         1 <0>         0.0858
     44 H22         2.7813   -3.4443   -4.0648 H         1 <0>         0.3999
@<TRIPOS>BOND
     1    1    6 ar
     2    1    2 ar
     3    1   25 1
     4    2    3 ar
     5    2   26 1
     6    3    4 ar
     7    4    5 ar
     8    4   27 1
     9    5    6 ar
    10    5   28 1
    11    6    7 1
    12    7    8 1
    13    7   12 1
    14    7    9 1
    15    9   10 1
    16    9   29 1
    17    9   30 1
    18   10   11 1
    19   10   31 1
    20   10   32 1
    21   11   12 1
    22   11   33 1
    23   11   34 1
    24   12   13 am
    25   13   14 2
    26   13   15 am
    27   15   16 1
    28   15   35 1
    29   16   17 1
    30   16   23 1
    31   16   18 1
    32   18   19 1
    33   18   36 1
    34   18   37 1
    35   19   20 1
    36   19   38 1
    37   19   39 1
    38   20   21 1
    39   20   40 1
    40   20   41 1
    41   21   22 1
    42   21   42 1
    43   21   43 1
    44   22   23 am
    45   22   44 1
    46   23   24 2
@<TRIPOS>MOLECULE
ZINC61913917
   39    41     0     0     0
SMALL
USER_CHARGES

@<TRIPOS>ATOM
      1 C1          0.0520    1.3674   -0.8054 C.ar      1 <0>        -0.1794
      2 C2          1.2224    2.0775   -0.6299 C.ar      1 <0>        -0.0542
      3 C3          2.4107    1.4057   -0.3741 C.ar      1 <0>         0.0640
      4 C4          2.4216    0.0192   -0.2944 C.ar      1 <0>        -0.0699
      5 C5          1.2515   -0.6914   -0.4693 C.ar      1 <0>        -0.1771
      6 C6          0.0626   -0.0196   -0.7256 C.ar      1 <0>         0.2238
      7 N1         -1.1223   -0.7388   -0.9028 N.pl3     1 <0>        -0.8714
      8 N2          3.5995    2.1272   -0.1969 N.pl3     1 <0>        -0.2194
      9 C7          4.8154    1.5750    0.0517 C.2       1 <0>        -0.0170
     10 C8          5.7015    2.5928    0.1579 C.2       1 <0>        -0.1681
     11 C9          4.9481    3.7742   -0.0404 C.2       1 <0>        -0.0166
     12 N3          3.6990    3.4070   -0.2513 N.2       1 <0>        -0.2575
     13 C10         5.4642    5.1574   -0.0202 C.2       1 <0>         0.5994
     14 O1          6.6598    5.3588    0.0701 O.2       1 <0>        -0.5287
     15 N4          4.6099    6.1966   -0.1020 N.am      1 <0>        -0.6005
     16 C11         5.1603    7.5606   -0.2130 C.3       1 <0>         0.1103
     17 C12         4.3698    8.3925   -1.2336 C.3       1 <0>        -0.1657
     18 C13         4.0184    7.5297   -2.4287 C.3       1 <0>         0.0731
     19 O2          2.7466    6.9353   -2.2053 O.3       1 <0>        -0.3909
     20 C14         2.6679    5.7375   -1.5242 C.3       1 <0>         0.0694
     21 C15         3.1833    5.9309   -0.0833 C.3       1 <0>         0.0656
     22 H1         -0.8727    1.8901   -1.0002 H         1 <0>         0.1336
     23 H2          1.2142    3.1557   -0.6919 H         1 <0>         0.1388
     24 H3          3.3458   -0.5030   -0.0958 H         1 <0>         0.1339
     25 H4          1.2600   -1.7696   -0.4076 H         1 <0>         0.1339
     26 H5         -1.9523   -0.2697   -1.0814 H         1 <0>         0.4023
     27 H6         -1.1148   -1.7072   -0.8471 H         1 <0>         0.4019
     28 H7          5.0340    0.5216    0.1470 H         1 <0>         0.1849
     29 H8          6.7611    2.5188    0.3530 H         1 <0>         0.1669
     30 H9          5.1101    8.0472    0.7610 H         1 <0>         0.0696
     31 H10         6.2018    7.5016   -0.5293 H         1 <0>         0.0928
     32 H11         3.4546    8.7612   -0.7704 H         1 <0>         0.0811
     33 H12         4.9762    9.2369   -1.5612 H         1 <0>         0.0897
     34 H13         3.9808    8.1467   -3.3265 H         1 <0>         0.0920
     35 H14         4.7701    6.7497   -2.5501 H         1 <0>         0.0513
     36 H15         1.6312    5.4016   -1.4986 H         1 <0>         0.1021
     37 H16         3.2793    4.9907   -2.0307 H         1 <0>         0.0463
     38 H17         2.9902    5.0250    0.4913 H         1 <0>         0.1082
     39 H18         2.6635    6.7708    0.3776 H         1 <0>         0.0816
@<TRIPOS>BOND
     1    1    6 ar
     2    1    2 ar
     3    1   22 1
     4    2    3 ar
     5    2   23 1
     6    3    4 ar
     7    3    8 1
     8    4    5 ar
     9    4   24 1
    10    5    6 ar
    11    5   25 1
    12    6    7 1
    13    7   26 1
    14    7   27 1
    15    8   12 1
    16    8    9 1
    17    9   10 2
    18    9   28 1
    19   10   11 1
    20   10   29 1
    21   11   12 2
    22   11   13 1
    23   13   14 2
    24   13   15 am
    25   15   21 1
    26   15   16 1
    27   16   17 1
    28   16   30 1
    29   16   31 1
    30   17   18 1
    31   17   32 1
    32   17   33 1
    33   18   19 1
    34   18   34 1
    35   18   35 1
    36   19   20 1
    37   20   21 1
    38   20   36 1
    39   20   37 1
    40   21   38 1
    41   21   39 1
@<TRIPOS>MOLECULE
ZINC04014765
   32    35     0     0     0
SMALL
USER_CHARGES

@<TRIPOS>ATOM
      1 C1         -0.0162    1.3409    0.0094 C.2       1 <0>        -0.2073
      2 C2          1.3313    1.7689   -0.0012 C.2       1 <0>        -0.1910
      3 C3          2.0923    0.6599   -0.0144 C.2       1 <0>        -0.0043
      4 O1          1.2819   -0.4111   -0.0124 O.3       1 <0>        -0.1665
      5 C4          0.0021   -0.0041    0.0020 C.2       1 <0>        -0.0410
      6 C5          3.5989    0.6249   -0.0294 C.3       1 <0>         0.1627
      7 H1          3.9903    1.6422   -0.0280 H         1 <0>         0.1204
      8 C6          4.0783   -0.1026   -1.2587 C.2       1 <0>        -0.2592
      9 C7          4.0652    0.3131   -2.5952 C.2       1 <0>         0.2062
     10 N1          4.5866   -0.6558   -3.3263 N.2       1 <0>        -0.2396
     11 N2          4.9439   -1.7103   -2.4718 N.pl3     1 <0>        -0.4404
     12 H2          5.3485   -2.5499   -2.7407 H         1 <0>         0.4514
     13 C8          4.6253   -1.3516   -1.2104 C.2       1 <0>         0.2901
     14 O2          4.7835   -2.0373   -0.0506 O.3       1 <0>        -0.2260
     15 C9          4.6406   -1.3544    1.1034 C.2       1 <0>         0.4495
     16 C10         4.1029   -0.1160    1.1840 C.2       1 <0>        -0.2648
     17 C11         4.0079    0.5145    2.4662 C.1       1 <0>         0.2702
     18 N3          3.9325    1.0146    3.4834 N.1       1 <0>        -0.4319
     19 N4          5.0663   -1.9505    2.2644 N.pl3     1 <0>        -0.8271
     20 C12         3.5578    1.6078   -3.0995 C.2       1 <0>        -0.1159
     21 C13         4.0199    2.3694   -4.1386 C.2       1 <0>        -0.1130
     22 C14         3.3787    3.5547   -4.4277 C.2       1 <0>        -0.1649
     23 C15         2.3124    3.9300   -3.6764 C.2       1 <0>        -0.1849
     24 S1          2.1787    2.5799   -2.5161 S.3       1 <0>         0.1251
     25 H3         -0.8920    1.9726    0.0252 H         1 <0>         0.1485
     26 H4          1.6822    2.7903    0.0004 H         1 <0>         0.1523
     27 H5         -0.8653   -0.6475    0.0072 H         1 <0>         0.2006
     28 H6          5.4568   -2.8380    2.2389 H         1 <0>         0.4129
     29 H7          4.9767   -1.4841    3.1102 H         1 <0>         0.4293
     30 H8          4.8709    2.0479   -4.7207 H         1 <0>         0.1369
     31 H9          3.7205    4.1772   -5.2414 H         1 <0>         0.1354
     32 H10         1.6997    4.8152   -3.7616 H         1 <0>         0.1861
@<TRIPOS>BOND
     1    1    5 2
     2    1    2 1
     3    1   25 1
     4    2    3 2
     5    2   26 1
     6    3    4 1
     7    3    6 1
     8    4    5 1
     9    5   27 1
    10    6    7 1
    11    6   16 1
    12    6    8 1
    13    8   13 2
    14    8    9 1
    15    9   10 2
    16    9   20 1
    17   10   11 1
    18   11   12 1
    19   11   13 1
    20   13   14 1
    21   14   15 1
    22   15   16 2
    23   15   19 1
    24   16   17 1
    25   17   18 3
    26   19   28 1
    27   19   29 1
    28   20   24 1
    29   20   21 2
    30   21   22 1
    31   21   30 1
    32   22   23 2
    33   22   31 1
    34   23   24 1
    35   23   32 1
@<TRIPOS>MOLECULE
ZINC04546778
   56    60     0     0     0
SMALL
USER_CHARGES
3-(4-bromophenyl)-2-(1-naphthyl)-5-(2-naphthyl)-5-oxo-pentanenitrile
@<TRIPOS>ATOM
      1 C1         12.7768    2.0072    3.9021 C.ar      1 <0>        -0.1009
      2 C2         12.3211    3.0286    4.7334 C.ar      1 <0>        -0.1191
      3 C3         11.0688    3.5419    4.5896 C.ar      1 <0>        -0.0950
      4 C4         10.2198    3.0360    3.5883 C.ar      1 <0>        -0.0689
      5 C5          8.9238    3.5422    3.4137 C.ar      1 <0>        -0.0287
      6 C6          8.1153    3.0170    2.4150 C.ar      1 <0>        -0.1707
      7 C7          8.5875    1.9803    1.5858 C.ar      1 <0>        -0.0844
      8 C8          9.8406    1.4843    1.7387 C.ar      1 <0>        -0.1128
      9 C9         10.6841    1.9963    2.7426 C.ar      1 <0>        -0.0287
     10 C10        11.9828    1.4928    2.9227 C.ar      1 <0>        -0.1149
     11 C11         6.7548    3.5421    2.2250 C.2       1 <0>         0.3987
     12 O1          6.3426    4.4309    2.9396 O.2       1 <0>        -0.4370
     13 C12         5.8729    2.9755    1.1423 C.3       1 <0>        -0.1586
     14 C13         4.5209    3.6916    1.1591 C.3       1 <0>        -0.0294
     15 H1          4.6781    4.7668    1.0734 H         1 <0>         0.1026
     16 C14         3.8085    3.3896    2.4523 C.ar      1 <0>        -0.0546
     17 C15         3.4937    2.0838    2.7792 C.ar      1 <0>        -0.1114
     18 C16         2.8446    1.8059    3.9674 C.ar      1 <0>        -0.0885
     19 C17         2.5006    2.8356    4.8246 C.ar      1 <0>        -0.0867
     20 C18         2.8111    4.1425    4.4946 C.ar      1 <0>        -0.0895
     21 C19         3.4649    4.4190    3.3086 C.ar      1 <0>        -0.0748
     22 Br1         1.6056    2.4568    6.4467 Br        1 <0>        -0.0537
     23 C20         3.6714    3.2050   -0.0168 C.3       1 <0>         0.0548
     24 H2          3.5142    2.1298    0.0689 H         1 <0>         0.1265
     25 C21         4.3673    3.5000   -1.2800 C.1       1 <0>         0.2052
     26 N1          4.9043    3.7277   -2.2548 N.1       1 <0>        -0.4107
     27 C22         2.3398    3.9103   -0.0003 C.ar      1 <0>        -0.0744
     28 C23         2.2860    5.2704    0.0125 C.ar      1 <0>        -0.0934
     29 C24         1.0642    5.9400    0.0278 C.ar      1 <0>        -0.1155
     30 C25        -0.1113    5.2535    0.0296 C.ar      1 <0>        -0.0938
     31 C26        -0.0958    3.8486    0.0162 C.ar      1 <0>        -0.0504
     32 C27         1.1472    3.1675    0.0011 C.ar      1 <0>        -0.0296
     33 C28         1.1625    1.7621   -0.0128 C.ar      1 <0>        -0.1151
     34 C29        -0.0127    1.0760   -0.0114 C.ar      1 <0>        -0.1060
     35 C30        -1.2350    1.7458   -0.0019 C.ar      1 <0>        -0.1165
     36 C31        -1.2887    3.1055    0.0171 C.ar      1 <0>        -0.1011
     37 H3         13.7749    1.6173    4.0370 H         1 <0>         0.1270
     38 H4         12.9709    3.4183    5.5030 H         1 <0>         0.1273
     39 H5         10.7285    4.3331    5.2411 H         1 <0>         0.1311
     40 H6          8.5577    4.3336    4.0510 H         1 <0>         0.1403
     41 H7          7.9451    1.5785    0.8162 H         1 <0>         0.1306
     42 H8         10.1899    0.6924    1.0927 H         1 <0>         0.1333
     43 H9         12.3505    0.7013    2.2866 H         1 <0>         0.1308
     44 H10         5.7346    1.9982    1.3025 H         1 <0>         0.0993
     45 H11         6.3490    3.1210    0.1727 H         1 <0>         0.1047
     46 H12         3.7586    1.2803    2.1079 H         1 <0>         0.1280
     47 H13         2.6021    0.7853    4.2245 H         1 <0>         0.1314
     48 H14         2.5424    4.9468    5.1634 H         1 <0>         0.1310
     49 H15         3.7070    5.4394    3.0507 H         1 <0>         0.1307
     50 H16         3.2042    5.8391    0.0114 H         1 <0>         0.1231
     51 H17         1.0495    7.0199    0.0381 H         1 <0>         0.1268
     52 H18        -1.0508    5.7859    0.0416 H         1 <0>         0.1291
     53 H19         2.1020    1.2296   -0.0240 H         1 <0>         0.1260
     54 H20         0.0019   -0.0039   -0.0225 H         1 <0>         0.1244
     55 H21        -2.1532    1.1772   -0.0052 H         1 <0>         0.1240
     56 H22        -2.2431    3.6109    0.0283 H         1 <0>         0.1280
@<TRIPOS>BOND
     1    1   10 ar
     2    1    2 ar
     3    1   37 1
     4    2    3 ar
     5    2   38 1
     6    3    4 ar
     7    3   39 1
     8    4    9 ar
     9    4    5 ar
    10    5    6 ar
    11    5   40 1
    12    6    7 ar
    13    6   11 1
    14    7    8 ar
    15    7   41 1
    16    8    9 ar
    17    8   42 1
    18    9   10 ar
    19   10   43 1
    20   11   12 2
    21   11   13 1
    22   13   14 1
    23   13   44 1
    24   13   45 1
    25   14   15 1
    26   14   16 1
    27   14   23 1
    28   16   21 ar
    29   16   17 ar
    30   17   18 ar
    31   17   46 1
    32   18   19 ar
    33   18   47 1
    34   19   20 ar
    35   19   22 1
    36   20   21 ar
    37   20   48 1
    38   21   49 1
    39   23   24 1
    40   23   25 1
    41   23   27 1
    42   25   26 3
    43   27   32 ar
    44   27   28 ar
    45   28   29 ar
    46   28   50 1
    47   29   30 ar
    48   29   51 1
    49   30   31 ar
    50   30   52 1
    51   31   36 ar
    52   31   32 ar
    53   32   33 ar
    54   33   34 ar
    55   33   53 1
    56   34   35 ar
    57   34   54 1
    58   35   36 ar
    59   35   55 1
    60   36   56 1
@<TRIPOS>MOLECULE
ZINC08782032
   46    49     0     0     0
SMALL
USER_CHARGES
1-(4-bromophenyl)-N-[(2-chloro-6-fluoro-phenyl)methoxy]-1-[2-(4-chlorophenyl)cyclopropyl]-methanimine
@<TRIPOS>ATOM
      1 C1          4.6406   -2.9248    0.1255 C.ar      1 <0>        -0.0660
      2 C2          4.5881   -2.2441    1.3273 C.ar      1 <0>        -0.1518
      3 C3          4.6749   -0.8624    1.3447 C.ar      1 <0>         0.1369
      4 C4          4.8023   -0.1626    0.1568 C.ar      1 <0>        -0.1245
      5 C5          4.8546   -0.8453   -1.0448 C.ar      1 <0>         0.0098
      6 C6          4.7739   -2.2267   -1.0598 C.ar      1 <0>        -0.1233
      7 Cl1         5.0210    0.0307   -2.5343 Cl        1 <0>        -0.0457
      8 C7          4.8901    1.3417    0.1736 C.3       1 <0>         0.1114
      9 O1          3.5769    1.8966    0.0754 O.3       1 <0>        -0.2183
     10 N1          3.5478    3.3123    0.0826 N.2       1 <0>        -0.3258
     11 C8          2.4180    3.9364   -0.0008 C.2       1 <0>         0.2095
     12 C9          1.1732    3.1803   -0.2419 C.ar      1 <0>        -0.0814
     13 C10        -0.0312    3.6176    0.3128 C.ar      1 <0>        -0.0811
     14 C11        -1.1907    2.9065    0.0842 C.ar      1 <0>        -0.0969
     15 C12        -1.1611    1.7585   -0.6892 C.ar      1 <0>        -0.0749
     16 C13         0.0291    1.3226   -1.2465 C.ar      1 <0>        -0.0949
     17 C14         1.1954    2.0247   -1.0253 C.ar      1 <0>        -0.0696
     18 Br1        -2.7543    0.7857   -0.9916 Br        1 <0>        -0.0454
     19 C15         2.3724    5.4353    0.1480 C.3       1 <0>        -0.0966
     20 H1          1.5706    5.9373   -0.3935 H         1 <0>         0.1349
     21 C16         2.7916    6.0244    1.4964 C.3       1 <0>        -0.1458
     22 C17         3.7063    6.1732    0.2790 C.3       1 <0>        -0.0927
     23 H2          4.6168    5.5744    0.2575 H         1 <0>         0.1292
     24 C18         3.8110    7.5383   -0.3506 C.ar      1 <0>        -0.0496
     25 C19         2.9624    8.5522    0.0529 C.ar      1 <0>        -0.1078
     26 C20         3.0618    9.8061   -0.5201 C.ar      1 <0>        -0.1061
     27 C21         4.0033   10.0432   -1.5057 C.ar      1 <0>        -0.0372
     28 C22         4.8486    9.0266   -1.9131 C.ar      1 <0>        -0.1067
     29 C23         4.7520    7.7747   -1.3354 C.ar      1 <0>        -0.0961
     30 Cl2         4.1236   11.6157   -2.2313 Cl        1 <0>        -0.0691
     31 F1          4.6297   -0.1971    2.5196 F         1 <0>        -0.1253
     32 H3          4.5777   -4.0029    0.1127 H         1 <0>         0.1475
     33 H4          4.4839   -2.7903    2.2532 H         1 <0>         0.1466
     34 H5          4.8148   -2.7596   -1.9983 H         1 <0>         0.1451
     35 H6          5.4915    1.6800   -0.6701 H         1 <0>         0.0792
     36 H7          5.3538    1.6682    1.1045 H         1 <0>         0.0741
     37 H8         -0.0548    4.5105    0.9200 H         1 <0>         0.1389
     38 H9         -2.1229    3.2435    0.5131 H         1 <0>         0.1379
     39 H10         0.0449    0.4286   -1.8522 H         1 <0>         0.1357
     40 H11         2.1239    1.6812   -1.4569 H         1 <0>         0.1396
     41 H12         2.2654    6.9142    1.8423 H         1 <0>         0.1123
     42 H13         3.1003    5.3278    2.2758 H         1 <0>         0.1067
     43 H14         2.2245    8.3658    0.8192 H         1 <0>         0.1344
     44 H15         2.4016   10.5993   -0.2017 H         1 <0>         0.1348
     45 H16         5.5835    9.2110   -2.6827 H         1 <0>         0.1348
     46 H17         5.4120    6.9811   -1.6531 H         1 <0>         0.1331
@<TRIPOS>BOND
     1    1    6 ar
     2    1    2 ar
     3    1   32 1
     4    2    3 ar
     5    2   33 1
     6    3    4 ar
     7    3   31 1
     8    4    5 ar
     9    4    8 1
    10    5    6 ar
    11    5    7 1
    12    6   34 1
    13    8    9 1
    14    8   35 1
    15    8   36 1
    16    9   10 1
    17   10   11 2
    18   11   12 1
    19   11   19 1
    20   12   17 ar
    21   12   13 ar
    22   13   14 ar
    23   13   37 1
    24   14   15 ar
    25   14   38 1
    26   15   16 ar
    27   15   18 1
    28   16   17 ar
    29   16   39 1
    30   17   40 1
    31   19   20 1
    32   19   22 1
    33   19   21 1
    34   21   22 1
    35   21   41 1
    36   21   42 1
    37   22   23 1
    38   22   24 1
    39   24   29 ar
    40   24   25 ar
    41   25   26 ar
    42   25   43 1
    43   26   27 ar
    44   26   44 1
    45   27   28 ar
    46   27   30 1
    47   28   29 ar
    48   28   45 1
    49   29   46 1
@<TRIPOS>MOLECULE
ZINC13401617
   86    91     0     0     0
SMALL
USER_CHARGES
(2-chlorophenyl)-[(1S)-1,5-dimethylhexyl]-dimethyl-BLAH
@<TRIPOS>ATOM
      1 C1          0.4102   -0.5528    7.3930 C.3       1 <0>        -0.1493
      2 C2         -1.0891   -0.4829    7.0959 C.3       1 <0>        -0.0982
      3 C3         -1.8598   -0.2905    8.4035 C.3       1 <0>        -0.1490
      4 C4         -1.3693    0.6952    6.1607 C.3       1 <0>        -0.1150
      5 C5         -0.6999    0.4431    4.8082 C.3       1 <0>        -0.1224
      6 C6         -0.9801    1.6211    3.8730 C.3       1 <0>        -0.1145
      7 C7         -0.3107    1.3690    2.5205 C.3       1 <0>        -0.0805
      8 H1         -0.6353    0.4051    2.1285 H         1 <0>         0.0707
      9 C8          1.2090    1.3623    2.6970 C.3       1 <0>        -0.1608
     10 C9         -0.7043    2.4731    1.5449 C.3       1 <0>        -0.0763
     11 H2         -1.7894    2.5868    1.5167 H         1 <0>         0.0679
     12 C10        -0.0424    3.8160    1.9488 C.3       1 <0>        -0.1224
     13 C11         0.9940    4.1494    0.8390 C.3       1 <0>        -0.1133
     14 C12         1.2423    2.7824    0.1929 C.3       1 <0>        -0.0958
     15 H3          1.8270    2.1845    0.9218 H         1 <0>         0.0860
     16 C13        -0.1803    2.1932    0.1311 C.3       1 <0>        -0.0481
     17 C14        -0.0777    0.7441   -0.2868 C.3       1 <0>        -0.1034
     18 C15         0.5086    0.7001   -1.7086 C.3       1 <0>        -0.1102
     19 C16         1.8504    1.3832   -1.8001 C.3       1 <0>        -0.0611
     20 H4          2.5403    0.7207   -1.2381 H         1 <0>         0.0523
     21 C17         1.9702    2.7208   -1.1044 C.3       1 <0>        -0.0557
     22 H5          3.0465    2.8100   -0.8409 H         1 <0>         0.0525
     23 C18         1.6948    3.8696   -2.0583 C.3       1 <0>        -0.1114
     24 C19         2.7980    3.9231   -3.1091 C.3       1 <0>        -0.1154
     25 C20         3.4251    2.5529   -3.3691 C.3       1 <0>        -0.0676
     26 H6          4.2429    2.3916   -2.6587 H         1 <0>         0.0704
     27 C21         2.4161    1.4173   -3.2213 C.3       1 <0>        -0.0264
     28 C22         3.1331    0.0628   -3.4112 C.3       1 <0>        -0.0328
     29 C23         3.9470    0.0915   -4.6759 C.2       1 <0>        -0.0073
     30 C24         4.3286    1.2302   -5.2844 C.2       1 <0>        -0.1490
     31 C25         5.0879    0.8348   -6.4664 C.2       1 <0>        -0.1454
     32 C26         5.0937   -0.5260   -6.4571 C.2       1 <0>        -0.0151
     33 O1          4.4095   -0.9478   -5.3814 O.3       1 <0>        -0.1726
     34 C27         5.7209    1.7270   -7.4695 C.ar      1 <0>        -0.0034
     35 C28         5.2665    1.7317   -8.7866 C.ar      1 <0>        -0.0973
     36 C29         5.8587    2.5632   -9.7154 C.ar      1 <0>        -0.1137
     37 C30         6.9015    3.3917   -9.3412 C.ar      1 <0>        -0.1073
     38 C31         7.3572    3.3918   -8.0356 C.ar      1 <0>        -0.1111
     39 C32         6.7686    2.5675   -7.0960 C.ar      1 <0>        -0.0238
     40 Cl1         7.3362    2.5740   -5.4555 Cl        1 <0>        -0.0595
     41 C33         4.0012    2.6073   -4.7941 C.3       1 <0>        -0.0488
     42 C34         1.3182    1.5537   -4.2725 C.3       1 <0>        -0.1428
     43 C35        -1.0728    2.9648   -0.8471 C.3       1 <0>        -0.1446
     44 H7          0.7296    0.3738    7.8701 H         1 <0>         0.0531
     45 H8          0.6098   -1.3920    8.0593 H         1 <0>         0.0520
     46 H9          0.9592   -0.6898    6.4614 H         1 <0>         0.0561
     47 H10        -1.4085   -1.4095    6.6188 H         1 <0>         0.0676
     48 H11        -2.9278   -0.2407    8.1918 H         1 <0>         0.0533
     49 H12        -1.6601   -1.1298    9.0698 H         1 <0>         0.0533
     50 H13        -1.5403    0.6360    8.8806 H         1 <0>         0.0535
     51 H14        -0.9700    1.6098    6.5988 H         1 <0>         0.0601
     52 H15        -2.4451    0.7993    6.0198 H         1 <0>         0.0595
     53 H16        -1.0992   -0.4716    4.3700 H         1 <0>         0.0585
     54 H17         0.3759    0.3389    4.9490 H         1 <0>         0.0666
     55 H18        -0.5808    2.5358    4.3112 H         1 <0>         0.0609
     56 H19        -2.0560    1.7253    3.7321 H         1 <0>         0.0587
     57 H20         1.5623    2.3830    2.8435 H         1 <0>         0.0631
     58 H21         1.4712    0.7588    3.5660 H         1 <0>         0.0529
     59 H22         1.6763    0.9403    1.8072 H         1 <0>         0.0618
     60 H23         0.4627    3.7078    2.9087 H         1 <0>         0.0689
     61 H24        -0.7945    4.6015    2.0077 H         1 <0>         0.0582
     62 H25         1.9144    4.5347    1.2828 H         1 <0>         0.0579
     63 H26         0.5898    4.8647    0.1287 H         1 <0>         0.0677
     64 H27         0.5925    0.1935    0.3746 H         1 <0>         0.0644
     65 H28        -1.0628    0.2790   -0.2898 H         1 <0>         0.0616
     66 H29         0.6383   -0.3548   -1.9734 H         1 <0>         0.0546
     67 H30        -0.2134    1.1307   -2.3873 H         1 <0>         0.0675
     68 H31         1.6864    4.8144   -1.5091 H         1 <0>         0.0628
     69 H32         0.7386    3.7395   -2.5612 H         1 <0>         0.0666
     70 H33         3.5751    4.6080   -2.7634 H         1 <0>         0.0585
     71 H34         2.3817    4.3125   -4.0381 H         1 <0>         0.0615
     72 H35         3.7907   -0.1185   -2.5621 H         1 <0>         0.0842
     73 H36         2.3898   -0.7304   -3.4752 H         1 <0>         0.0834
     74 H37         5.5682   -1.1592   -7.1923 H         1 <0>         0.2040
     75 H38         4.4521    1.0861   -9.0802 H         1 <0>         0.1318
     76 H39         5.5070    2.5674  -10.7365 H         1 <0>         0.1311
     77 H40         7.3612    4.0412  -10.0714 H         1 <0>         0.1328
     78 H41         8.1714    4.0409   -7.7488 H         1 <0>         0.1345
     79 H42         3.2886    3.0774   -5.4696 H         1 <0>         0.0721
     80 H43         4.9173    3.2060   -4.7847 H         1 <0>         0.0746
     81 H44         0.7668    2.4787   -4.1041 H         1 <0>         0.0614
     82 H45         1.7666    1.5736   -5.2658 H         1 <0>         0.0582
     83 H46         0.6369    0.7060   -4.1984 H         1 <0>         0.0567
     84 H47        -2.0662    2.5166   -0.8635 H         1 <0>         0.0486
     85 H48        -1.1484    4.0041   -0.5275 H         1 <0>         0.0540
     86 H49        -0.6386    2.9224   -1.8460 H         1 <0>         0.0630
@<TRIPOS>BOND
     1    1    2 1
     2    1   44 1
     3    1   45 1
     4    1   46 1
     5    2    3 1
     6    2    4 1
     7    2   47 1
     8    3   48 1
     9    3   49 1
    10    3   50 1
    11    4    5 1
    12    4   51 1
    13    4   52 1
    14    5    6 1
    15    5   53 1
    16    5   54 1
    17    6    7 1
    18    6   55 1
    19    6   56 1
    20    7    8 1
    21    7    9 1
    22    7   10 1
    23    9   57 1
    24    9   58 1
    25    9   59 1
    26   10   11 1
    27   10   16 1
    28   10   12 1
    29   12   13 1
    30   12   60 1
    31   12   61 1
    32   13   14 1
    33   13   62 1
    34   13   63 1
    35   14   15 1
    36   14   21 1
    37   14   16 1
    38   16   17 1
    39   16   43 1
    40   17   18 1
    41   17   64 1
    42   17   65 1
    43   18   19 1
    44   18   66 1
    45   18   67 1
    46   19   20 1
    47   19   27 1
    48   19   21 1
    49   21   22 1
    50   21   23 1
    51   23   24 1
    52   23   68 1
    53   23   69 1
    54   24   25 1
    55   24   70 1
    56   24   71 1
    57   25   26 1
    58   25   41 1
    59   25   27 1
    60   27   28 1
    61   27   42 1
    62   28   29 1
    63   28   72 1
    64   28   73 1
    65   29   33 1
    66   29   30 2
    67   30   31 1
    68   30   41 1
    69   31   32 2
    70   31   34 1
    71   32   33 1
    72   32   74 1
    73   34   39 ar
    74   34   35 ar
    75   35   36 ar
    76   35   75 1
    77   36   37 ar
    78   36   76 1
    79   37   38 ar
    80   37   77 1
    81   38   39 ar
    82   38   78 1
    83   39   40 1
    84   41   79 1
    85   41   80 1
    86   42   81 1
    87   42   82 1
    88   42   83 1
    89   43   84 1
    90   43   85 1
    91   43   86 1
@<TRIPOS>MOLECULE
ZINC35361509
   80    83     0     0     0
SMALL
USER_CHARGES

@<TRIPOS>ATOM
      1 C1          0.9024   -1.1973   -2.3313 C.3       1 <0>        -0.1560
      2 C2          0.6384   -0.4720   -1.0102 C.3       1 <0>        -0.1225
      3 C3         -0.8210   -0.6764   -0.5989 C.3       1 <0>        -0.0819
      4 H1         -1.0128   -0.1479    0.3349 H         1 <0>         0.0665
      5 C4         -1.7405   -0.1295   -1.6926 C.3       1 <0>        -0.1202
      6 C5         -1.5396    1.3820   -1.8191 C.3       1 <0>        -0.1176
      7 C6         -2.3680    1.9102   -2.9920 C.3       1 <0>        -0.0864
      8 H2         -2.1088    1.3601   -3.8967 H         1 <0>         0.0776
      9 C7         -3.8563    1.7235   -2.6904 C.3       1 <0>        -0.1551
     10 C8         -2.0724    3.3939   -3.1964 C.3       1 <0>        -0.0781
     11 H3         -2.3807    3.9837   -2.3428 H         1 <0>         0.0707
     12 C9         -0.5692    3.6105   -3.5108 C.3       1 <0>        -0.1204
     13 C10        -0.5123    4.5241   -4.7704 C.3       1 <0>        -0.1193
     14 C11        -1.9224    5.1374   -4.7815 C.3       1 <0>        -0.0751
     15 H4         -1.9882    5.8352   -3.9218 H         1 <0>         0.0703
     16 C12        -2.7880    3.8971   -4.4716 C.3       1 <0>        -0.0483
     17 C13        -4.2276    4.2879   -4.2832 C.3       1 <0>        -0.1056
     18 C14        -4.7147    5.2372   -5.3844 C.3       1 <0>        -0.1048
     19 C15        -3.7150    5.3967   -6.5128 C.3       1 <0>        -0.0790
     20 H5         -3.5943    4.4319   -7.0130 H         1 <0>         0.0818
     21 C16        -2.3515    5.8616   -6.0169 C.3       1 <0>        -0.0659
     22 H6         -2.4435    6.9345   -5.7545 H         1 <0>         0.0687
     23 C17        -1.3307    5.7712   -7.1578 C.3       1 <0>        -0.1603
     24 C18        -1.8664    6.6693   -8.2677 C.2       1 <0>         0.3679
     25 O1         -1.2781    6.8176   -9.3100 O.2       1 <0>        -0.4467
     26 C19        -3.1770    7.3621   -7.9713 C.3       1 <0>        -0.1272
     27 H7         -3.0365    8.0215   -7.1051 H         1 <0>         0.1052
     28 C20        -4.2280    6.3111   -7.6228 C.3       1 <0>        -0.0409
     29 C21        -5.5364    6.9927   -7.2510 C.3       1 <0>        -0.1018
     30 C22        -6.0160    7.8860   -8.3958 C.3       1 <0>        -0.1191
     31 C23        -4.9501    8.9109   -8.7749 C.3       1 <0>        -0.0395
     32 H8         -4.7733    9.5769   -7.9280 H         1 <0>         0.1034
     33 C24        -3.6385    8.2129   -9.1473 C.3       1 <0>        -0.1036
     34 Br1        -5.5797    9.9703  -10.3075 Br        1 <0>        -0.1605
     35 C25        -4.4656    5.4164   -8.8437 C.3       1 <0>        -0.1538
     36 C26        -2.6413    2.7874   -5.5117 C.3       1 <0>        -0.1514
     37 C27        -1.0917   -2.1697   -0.4046 C.3       1 <0>        -0.0934
     38 C28        -0.1722   -2.7167    0.6891 C.3       1 <0>        -0.1505
     39 C29        -2.5512   -2.3741    0.0067 C.3       1 <0>        -0.1504
     40 H9          1.9300   -1.0160   -2.6462 H         1 <0>         0.0493
     41 H10         0.7474   -2.2676   -2.1954 H         1 <0>         0.0548
     42 H11         0.2178   -0.8249   -3.0933 H         1 <0>         0.0577
     43 H12         1.2935   -0.8745   -0.2375 H         1 <0>         0.0616
     44 H13         0.8351    0.5929   -1.1347 H         1 <0>         0.0619
     45 H14        -1.5008   -0.6085   -2.6420 H         1 <0>         0.0637
     46 H15        -2.7783   -0.3376   -1.4325 H         1 <0>         0.0655
     47 H16        -1.8610    1.8695   -0.8987 H         1 <0>         0.0564
     48 H17        -0.4851    1.5950   -1.9939 H         1 <0>         0.0660
     49 H18        -4.4388    1.9446   -3.5847 H         1 <0>         0.0606
     50 H19        -4.0384    0.6935   -2.3835 H         1 <0>         0.0535
     51 H20        -4.1519    2.3993   -1.8879 H         1 <0>         0.0513
     52 H21        -0.0790    4.1026   -2.6730 H         1 <0>         0.0605
     53 H22        -0.0903    2.6564   -3.7234 H         1 <0>         0.0655
     54 H23         0.2362    5.3079   -4.6294 H         1 <0>         0.0598
     55 H24        -0.3041    3.9564   -5.6672 H         1 <0>         0.0721
     56 H25        -4.8580    3.3868   -4.2761 H         1 <0>         0.0665
     57 H26        -4.3504    4.7762   -3.3047 H         1 <0>         0.0589
     58 H27        -5.6617    4.8553   -5.7889 H         1 <0>         0.0631
     59 H28        -4.9215    6.2203   -4.9410 H         1 <0>         0.0607
     60 H29        -0.3614    6.1350   -6.8221 H         1 <0>         0.1014
     61 H30        -1.2522    4.7468   -7.5139 H         1 <0>         0.1000
     62 H31        -6.2987    6.2373   -7.0432 H         1 <0>         0.0796
     63 H32        -5.3915    7.6028   -6.3559 H         1 <0>         0.0699
     64 H33        -6.2805    7.2879   -9.2648 H         1 <0>         0.0784
     65 H34        -6.9159    8.4220   -8.0689 H         1 <0>         0.0735
     66 H35        -2.8800    8.9786   -9.3525 H         1 <0>         0.0767
     67 H36        -3.7714    7.6161  -10.0432 H         1 <0>         0.0850
     68 H37        -5.2017    4.6517   -8.5960 H         1 <0>         0.0627
     69 H38        -4.8350    6.0218   -9.6714 H         1 <0>         0.0628
     70 H39        -3.5290    4.9393   -9.1322 H         1 <0>         0.0528
     71 H40        -3.2096    1.9135   -5.1932 H         1 <0>         0.0618
     72 H41        -3.0204    3.1371   -6.4720 H         1 <0>         0.0575
     73 H42        -1.5894    2.5200   -5.6119 H         1 <0>         0.0587
     74 H43        -0.9000   -2.6982   -1.3384 H         1 <0>         0.0709
     75 H44         0.8675   -2.5710    0.3961 H         1 <0>         0.0571
     76 H45        -0.3640   -2.1881    1.6229 H         1 <0>         0.0526
     77 H46        -0.3651   -3.7805    0.8275 H         1 <0>         0.0518
     78 H47        -3.2062   -1.9845   -0.7725 H         1 <0>         0.0568
     79 H48        -2.7440   -3.4380    0.1451 H         1 <0>         0.0516
     80 H49        -2.7429   -1.8456    0.9405 H         1 <0>         0.0525
@<TRIPOS>BOND
     1    1    2 1
     2    1   40 1
     3    1   41 1
     4    1   42 1
     5    2    3 1
     6    2   43 1
     7    2   44 1
     8    3    4 1
     9    3    5 1
    10    3   37 1
    11    5    6 1
    12    5   45 1
    13    5   46 1
    14    6    7 1
    15    6   47 1
    16    6   48 1
    17    7    8 1
    18    7    9 1
    19    7   10 1
    20    9   49 1
    21    9   50 1
    22    9   51 1
    23   10   11 1
    24   10   16 1
    25   10   12 1
    26   12   13 1
    27   12   52 1
    28   12   53 1
    29   13   14 1
    30   13   54 1
    31   13   55 1
    32   14   15 1
    33   14   21 1
    34   14   16 1
    35   16   17 1
    36   16   36 1
    37   17   18 1
    38   17   56 1
    39   17   57 1
    40   18   19 1
    41   18   58 1
    42   18   59 1
    43   19   20 1
    44   19   28 1
    45   19   21 1
    46   21   22 1
    47   21   23 1
    48   23   24 1
    49   23   60 1
    50   23   61 1
    51   24   25 2
    52   24   26 1
    53   26   27 1
    54   26   33 1
    55   26   28 1
    56   28   29 1
    57   28   35 1
    58   29   30 1
    59   29   62 1
    60   29   63 1
    61   30   31 1
    62   30   64 1
    63   30   65 1
    64   31   32 1
    65   31   33 1
    66   31   34 1
    67   33   66 1
    68   33   67 1
    69   35   68 1
    70   35   69 1
    71   35   70 1
    72   36   71 1
    73   36   72 1
    74   36   73 1
    75   37   38 1
    76   37   39 1
    77   37   74 1
    78   38   75 1
    79   38   76 1
    80   38   77 1
    81   39   78 1
    82   39   79 1
    83   39   80 1
@<TRIPOS>MOLECULE
ZINC36046290
   88    91     0     0     0
SMALL
USER_CHARGES

@<TRIPOS>ATOM
      1 C1          0.0029    1.3974   -0.2638 C.3       1 <0>        -0.1557
      2 C2         -0.0025   -0.1093    0.0018 C.3       1 <0>        -0.0866
      3 H1          0.5509   -0.3189    0.9172 H         1 <0>         0.0778
      4 C3          0.6580   -0.8364   -1.1712 C.3       1 <0>        -0.1164
      5 C4          2.1349   -0.4443   -1.2478 C.3       1 <0>        -0.1223
      6 C5          2.7954   -1.1714   -2.4209 C.3       1 <0>        -0.1151
      7 C6          4.2723   -0.7793   -2.4975 C.3       1 <0>        -0.0981
      8 C7          4.9615   -1.5989   -3.5902 C.3       1 <0>        -0.1491
      9 C8          4.3880    0.7102   -2.8277 C.3       1 <0>        -0.1493
     10 C9         -1.4414   -0.5935    0.1552 C.3       1 <0>        -0.0785
     11 H2         -2.0398   -0.3491   -0.7126 H         1 <0>         0.0702
     12 C10        -1.4758   -2.1168    0.4474 C.3       1 <0>        -0.1206
     13 C11        -2.4301   -2.3074    1.6632 C.3       1 <0>        -0.1160
     14 C12        -3.2102   -0.9825    1.6641 C.3       1 <0>        -0.0717
     15 H3         -3.8653   -0.9882    0.7660 H         1 <0>         0.0649
     16 C13        -2.0709    0.0314    1.4215 C.3       1 <0>        -0.0492
     17 C14        -2.6105    1.4234    1.2549 C.3       1 <0>        -0.1035
     18 C15        -3.6493    1.7783    2.3271 C.3       1 <0>        -0.1040
     19 C16        -3.7618    0.7294    3.4108 C.3       1 <0>        -0.0734
     20 H4         -2.8042    0.6860    3.9287 H         1 <0>         0.0756
     21 C17        -4.0431   -0.6578    2.8539 C.3       1 <0>        -0.0629
     22 H5         -5.1070   -0.6681    2.5371 H         1 <0>         0.0600
     23 C18        -3.9297   -1.6528    4.0145 C.3       1 <0>        -0.0811
     24 C19        -5.1056   -1.3283    4.9143 C.2       1 <0>        -0.1534
     25 C20        -5.4392   -0.0708    5.1270 C.2       1 <0>        -0.1034
     26 C21        -4.7215    1.0878    4.5264 C.3       1 <0>        -0.0079
     27 C22        -5.6464    2.2200    4.1233 C.3       1 <0>        -0.0974
     28 C23        -6.7099    2.4962    5.1788 C.3       1 <0>        -0.1014
     29 C24        -7.5326    1.2337    5.4368 C.3       1 <0>        -0.0569
     30 H6         -7.9562    0.8772    4.4978 H         1 <0>         0.1025
     31 C25        -6.6328    0.1538    6.0333 C.3       1 <0>        -0.0826
     32 S1         -8.8732    1.6120    6.5995 S.3       1 <0>        -0.0895
     33 C26        -9.7504    0.2046    6.6728 C.2       1 <0>         0.2994
     34 O1         -9.4092   -0.7576    6.0172 O.2       1 <0>        -0.4277
     35 C27       -10.9704    0.1221    7.5536 C.3       1 <0>        -0.0267
     36 H7        -11.2743    1.1265    7.8484 H         1 <0>         0.1238
     37 C28       -12.1096   -0.5505    6.7851 C.3       1 <0>        -0.0874
     38 C29       -11.7320   -2.0014    6.4798 C.3       1 <0>        -0.1692
     39 C30       -13.3829   -0.5226    7.6330 C.3       1 <0>        -0.1517
     40 Cl1       -10.5847   -0.8454    9.0253 Cl        1 <0>        -0.1284
     41 C31        -3.8309    1.6468    5.6397 C.3       1 <0>        -0.1475
     42 C32        -0.9895   -0.0179    2.5002 C.3       1 <0>        -0.1502
     43 H8          1.0072    1.7128   -0.5467 H         1 <0>         0.0539
     44 H9         -0.6911    1.6263   -1.0726 H         1 <0>         0.0516
     45 H10        -0.3034    1.9266    0.6385 H         1 <0>         0.0614
     46 H11         0.5751   -1.9133   -1.0243 H         1 <0>         0.0616
     47 H12         0.1592   -0.5569   -2.0992 H         1 <0>         0.0579
     48 H13         2.2177    0.6326   -1.3948 H         1 <0>         0.0662
     49 H14         2.6336   -0.7238   -0.3198 H         1 <0>         0.0583
     50 H15         2.7125   -2.2483   -2.2739 H         1 <0>         0.0594
     51 H16         2.2966   -0.8919   -3.3489 H         1 <0>         0.0600
     52 H17         4.7510   -0.9771   -1.5385 H         1 <0>         0.0676
     53 H18         4.4828   -1.4011   -4.5493 H         1 <0>         0.0535
     54 H19         6.0137   -1.3196   -3.6449 H         1 <0>         0.0534
     55 H20         4.8790   -2.6600   -3.3551 H         1 <0>         0.0532
     56 H21         3.8970    1.2941   -2.0492 H         1 <0>         0.0561
     57 H22         5.4402    0.9895   -2.8823 H         1 <0>         0.0520
     58 H23         3.9093    0.9080   -3.7867 H         1 <0>         0.0531
     59 H24        -1.8642   -2.6539   -0.4164 H         1 <0>         0.0601
     60 H25        -0.4779   -2.4728    0.6992 H         1 <0>         0.0649
     61 H26        -3.1111   -3.1417    1.4753 H         1 <0>         0.0584
     62 H27        -1.8836   -2.4641    2.5827 H         1 <0>         0.0718
     63 H28        -1.7840    2.1481    1.2946 H         1 <0>         0.0665
     64 H29        -3.0724    1.5184    0.2596 H         1 <0>         0.0573
     65 H30        -3.3828    2.7437    2.7784 H         1 <0>         0.0604
     66 H31        -4.6293    1.9066    1.8445 H         1 <0>         0.0579
     67 H32        -4.0154   -2.6715    3.6444 H         1 <0>         0.0724
     68 H33        -2.9963   -1.5081    4.5488 H         1 <0>         0.0746
     69 H34        -5.6654   -2.1252    5.3746 H         1 <0>         0.1102
     70 H35        -5.0589    3.1273    3.9691 H         1 <0>         0.0776
     71 H36        -6.1424    1.9610    3.1853 H         1 <0>         0.0653
     72 H37        -6.2451    2.8273    6.1057 H         1 <0>         0.0778
     73 H38        -7.3736    3.2878    4.8186 H         1 <0>         0.0757
     74 H39        -7.1972   -0.7755    6.1221 H         1 <0>         0.0841
     75 H40        -6.2911    0.4658    7.0187 H         1 <0>         0.0796
     76 H41       -12.2832   -0.0160    5.8512 H         1 <0>         0.0877
     77 H42       -11.5584   -2.5359    7.4137 H         1 <0>         0.0634
     78 H43       -12.5436   -2.4806    5.9323 H         1 <0>         0.0573
     79 H44       -10.8249   -2.0213    5.8757 H         1 <0>         0.0856
     80 H45       -13.6520    0.5110    7.8505 H         1 <0>         0.0589
     81 H46       -14.1946   -1.0018    7.0855 H         1 <0>         0.0661
     82 H47       -13.2094   -1.0571    8.5669 H         1 <0>         0.0662
     83 H48        -3.2939    2.5208    5.2711 H         1 <0>         0.0571
     84 H49        -4.4493    1.9325    6.4907 H         1 <0>         0.0549
     85 H50        -3.1157    0.8851    5.9499 H         1 <0>         0.0542
     86 H51        -0.1770    0.6571    2.2313 H         1 <0>         0.0599
     87 H52        -1.4152    0.2883    3.4557 H         1 <0>         0.0575
     88 H53        -0.6049   -1.0345    2.5829 H         1 <0>         0.0585
@<TRIPOS>BOND
     1    1    2 1
     2    1   43 1
     3    1   44 1
     4    1   45 1
     5    2    3 1
     6    2    4 1
     7    2   10 1
     8    4    5 1
     9    4   46 1
    10    4   47 1
    11    5    6 1
    12    5   48 1
    13    5   49 1
    14    6    7 1
    15    6   50 1
    16    6   51 1
    17    7    8 1
    18    7    9 1
    19    7   52 1
    20    8   53 1
    21    8   54 1
    22    8   55 1
    23    9   56 1
    24    9   57 1
    25    9   58 1
    26   10   11 1
    27   10   16 1
    28   10   12 1
    29   12   13 1
    30   12   59 1
    31   12   60 1
    32   13   14 1
    33   13   61 1
    34   13   62 1
    35   14   15 1
    36   14   21 1
    37   14   16 1
    38   16   17 1
    39   16   42 1
    40   17   18 1
    41   17   63 1
    42   17   64 1
    43   18   19 1
    44   18   65 1
    45   18   66 1
    46   19   20 1
    47   19   26 1
    48   19   21 1
    49   21   22 1
    50   21   23 1
    51   23   24 1
    52   23   67 1
    53   23   68 1
    54   24   25 2
    55   24   69 1
    56   25   31 1
    57   25   26 1
    58   26   27 1
    59   26   41 1
    60   27   28 1
    61   27   70 1
    62   27   71 1
    63   28   29 1
    64   28   72 1
    65   28   73 1
    66   29   30 1
    67   29   31 1
    68   29   32 1
    69   31   74 1
    70   31   75 1
    71   32   33 1
    72   33   34 2
    73   33   35 1
    74   35   36 1
    75   35   37 1
    76   35   40 1
    77   37   38 1
    78   37   39 1
    79   37   76 1
    80   38   77 1
    81   38   78 1
    82   38   79 1
    83   39   80 1
    84   39   81 1
    85   39   82 1
    86   41   83 1
    87   41   84 1
    88   41   85 1
    89   42   86 1
    90   42   87 1
    91   42   88 1
@<TRIPOS>MOLECULE
ZINC13036990
   41    42     0     0     0
SMALL
USER_CHARGES
(2S)-2-[[3-nitro-4-[[(1S)-1-(2-thienyl)ethyl]amino]benzoyl]amino]propanoic acid
@<TRIPOS>ATOM
      1 C1          5.4354    0.3296    0.6300 C.3       1 <0>        -0.1670
      2 C2          4.7953    0.0863   -0.7382 C.3       1 <0>         0.2287
      3 H1          4.5908    1.0429   -1.2190 H         1 <0>         0.1091
      4 C3          5.7372   -0.7168   -1.5978 C.2       1 <0>        -0.1665
      5 C4          6.5736   -0.2908   -2.5757 C.2       1 <0>        -0.1393
      6 C5          7.3557   -1.2173   -3.2394 C.2       1 <0>        -0.1588
      7 C6          7.2633   -2.5244   -2.8927 C.2       1 <0>        -0.1688
      8 S1          6.0469   -2.4750   -1.5869 S.3       1 <0>         0.0566
      9 N1          3.5415   -0.6518   -0.5664 N.pl3     1 <0>        -0.7197
     10 C7          2.3644    0.0332   -0.2860 C.ar      1 <0>         0.2972
     11 C8          2.3539    1.4255   -0.2857 C.ar      1 <0>        -0.2043
     12 C9          1.1906    2.1061   -0.0091 C.ar      1 <0>         0.0110
     13 C10         0.0181    1.3982    0.2714 C.ar      1 <0>        -0.1753
     14 C11         0.0318    0.0005    0.2703 C.ar      1 <0>         0.0439
     15 C12         1.1987   -0.6745   -0.0067 C.ar      1 <0>        -0.1260
     16 N2          1.2141   -2.1547   -0.0081 N.pl3     1 <0>         0.0396
     17 O1          0.2575   -2.7732   -0.4391 O.2       1 <0>        -0.1450
     18 O2          2.1834   -2.7540    0.4218 O.3       1 <0>        -0.1837
     19 C13        -1.2325    2.1249    0.5620 C.2       1 <0>         0.5561
     20 O3         -2.2527    1.5079    0.8008 O.2       1 <0>        -0.5481
     21 N3         -1.2441    3.4726    0.5627 N.am      1 <0>        -0.6917
     22 C14        -2.4860    4.1942    0.8512 C.3       1 <0>         0.0944
     23 H2         -3.3314    3.6397    0.4440 H         1 <0>         0.0922
     24 C15        -2.6522    4.3381    2.3653 C.3       1 <0>        -0.1380
     25 C16        -2.4308    5.5614    0.2197 C.2       1 <0>         0.4643
     26 O4         -1.4544    5.8984   -0.4070 O.co2     1 <0>        -0.6364
     27 H3          5.6399   -0.6270    1.1108 H         1 <0>         0.0678
     28 H4          6.3682    0.8788    0.5022 H         1 <0>         0.0760
     29 H5          4.7541    0.9105    1.2518 H         1 <0>         0.0734
     30 H6          6.6283    0.7568   -2.8323 H         1 <0>         0.1369
     31 H7          8.0302   -0.9045   -4.0228 H         1 <0>         0.1368
     32 H8          7.7915   -3.3747   -3.2983 H         1 <0>         0.1879
     33 H9          3.5325   -1.6183   -0.6483 H         1 <0>         0.4122
     34 H10         3.2599    1.9718   -0.5031 H         1 <0>         0.1515
     35 H11         1.1831    3.1861   -0.0093 H         1 <0>         0.1511
     36 H12        -0.8723   -0.5491    0.4870 H         1 <0>         0.1603
     37 H13        -0.4302    3.9647    0.3722 H         1 <0>         0.4029
     38 H14        -1.8068    4.8926    2.7726 H         1 <0>         0.0485
     39 H15        -3.5762    4.8750    2.5800 H         1 <0>         0.0732
     40 H16        -2.6921    3.3492    2.8221 H         1 <0>         0.0490
     41 O5         -3.4665    6.4048    0.3536 O.co2     1 <0>        -0.7521
@<TRIPOS>BOND
     1    1    2 1
     2    1   27 1
     3    1   28 1
     4    1   29 1
     5    2    3 1
     6    2    4 1
     7    2    9 1
     8    4    8 1
     9    4    5 2
    10    5    6 1
    11    5   30 1
    12    6    7 2
    13    6   31 1
    14    7    8 1
    15    7   32 1
    16    9   10 1
    17    9   33 1
    18   10   15 ar
    19   10   11 ar
    20   11   12 ar
    21   11   34 1
    22   12   13 ar
    23   12   35 1
    24   13   14 ar
    25   13   19 1
    26   14   15 ar
    27   14   36 1
    28   15   16 1
    29   16   17 2
    30   16   18 1
    31   19   20 2
    32   19   21 am
    33   21   22 1
    34   21   37 1
    35   22   23 1
    36   22   24 1
    37   22   25 1
    38   24   38 1
    39   24   39 1
    40   24   40 1
    41   25   26 2
    42   25   41 1
@<TRIPOS>MOLECULE
ZINC40099803
   51    53     0     0     0
SMALL
USER_CHARGES

@<TRIPOS>ATOM
      1 C1         -3.4304   -2.9266   -2.8591 C.3       1 <0>        -0.1127
      2 C2         -2.2757   -3.3565   -1.9913 C.ar      1 <0>        -0.1088
      3 C3         -0.9769   -3.1234   -2.4076 C.ar      1 <0>        -0.1097
      4 C4          0.0847   -3.5140   -1.6186 C.ar      1 <0>        -0.0817
      5 C5         -0.1522   -4.1467   -0.3961 C.ar      1 <0>        -0.1136
      6 C6         -1.4642   -4.3798    0.0199 C.ar      1 <0>        -0.0933
      7 C7         -2.5193   -3.9785   -0.7770 C.ar      1 <0>         0.0776
      8 F1         -3.7902   -4.1979   -0.3745 F         1 <0>        -0.1414
      9 C8          0.9821   -4.5682    0.4537 C.2       1 <0>         0.5063
     10 O1          2.1223   -4.4628    0.0426 O.2       1 <0>        -0.4687
     11 C9          0.7327   -5.1130    1.7915 C.2       1 <0>        -0.5111
     12 C10         0.9736   -6.3791    2.2054 C.2       1 <0>         0.2696
     13 C11         0.5794   -6.5092    3.6243 C.2       1 <0>         0.5156
     14 O2          0.6735   -7.5253    4.2837 O.2       1 <0>        -0.5165
     15 N1          0.1016   -5.3360    4.0775 N.am      1 <0>        -0.6107
     16 C12         0.1634   -4.3679    2.9762 C.3       1 <0>         0.2647
     17 H1         -0.8373   -4.0034    2.7441 H         1 <0>         0.0661
     18 C13         1.0626   -3.2160    3.3446 C.ar      1 <0>        -0.0549
     19 C14         2.2379   -3.4503    4.0346 C.ar      1 <0>        -0.0986
     20 C15         3.0649   -2.3958    4.3741 C.ar      1 <0>        -0.1049
     21 C16         2.7186   -1.1046    4.0248 C.ar      1 <0>        -0.1537
     22 C17         1.5402   -0.8669    3.3327 C.ar      1 <0>         0.0976
     23 C18         0.7149   -1.9277    2.9878 C.ar      1 <0>        -0.1397
     24 O3          1.1974    0.4021    2.9880 O.3       1 <0>        -0.5027
     25 C19        -0.3879   -5.0702    5.4325 C.3       1 <0>         0.1394
     26 C20        -1.8814   -5.3935    5.5078 C.3       1 <0>         0.0436
     27 O4         -2.0756   -6.7959    5.3136 O.3       1 <0>        -0.3577
     28 C21        -3.4480   -7.1902    5.2567 C.3       1 <0>         0.0622
     29 C22        -3.5372   -8.7150    5.1685 C.3       1 <0>         0.0784
     30 O5         -3.0329   -9.2923    6.3745 O.3       1 <0>        -0.5649
     31 O6          1.4918   -7.3682    1.4419 O.3       1 <0>        -0.6527
     32 H2         -3.7189   -1.9076   -2.6014 H         1 <0>         0.0724
     33 H3         -3.1319   -2.9658   -3.9067 H         1 <0>         0.0706
     34 H4         -4.2756   -3.5955   -2.6968 H         1 <0>         0.0684
     35 H5         -0.7939   -2.6345   -3.3531 H         1 <0>         0.1317
     36 H6          1.0977   -3.3314   -1.9458 H         1 <0>         0.1361
     37 H7         -1.6541   -4.8689    0.9639 H         1 <0>         0.1461
     38 H8          2.5100   -4.4587    4.3091 H         1 <0>         0.1210
     39 H9          3.9822   -2.5813    4.9130 H         1 <0>         0.1224
     40 H10         3.3646   -0.2810    4.2908 H         1 <0>         0.1214
     41 H11        -0.2007   -1.7458    2.4448 H         1 <0>         0.1237
     42 H12         1.5295    0.6780    2.1227 H         1 <0>         0.3858
     43 H13         0.1550   -5.6930    6.1435 H         1 <0>         0.0865
     44 H14        -0.2308   -4.0194    5.6759 H         1 <0>         0.0895
     45 H15        -2.2667   -5.1053    6.4859 H         1 <0>         0.0538
     46 H16        -2.4121   -4.8423    4.7314 H         1 <0>         0.0492
     47 H17        -3.9620   -6.8475    6.1548 H         1 <0>         0.0499
     48 H18        -3.9172   -6.7473    4.3782 H         1 <0>         0.0591
     49 H19        -4.5774   -9.0108    5.0314 H         1 <0>         0.0554
     50 H20        -2.9454   -9.0653    4.3229 H         1 <0>         0.0578
     51 H21        -3.0590  -10.2588    6.3889 H         1 <0>         0.3761
@<TRIPOS>BOND
     1    1    2 1
     2    1   32 1
     3    1   33 1
     4    1   34 1
     5    2    7 ar
     6    2    3 ar
     7    3    4 ar
     8    3   35 1
     9    4    5 ar
    10    4   36 1
    11    5    6 ar
    12    5    9 1
    13    6    7 ar
    14    6   37 1
    15    7    8 1
    16    9   10 2
    17    9   11 1
    18   11   16 1
    19   11   12 2
    20   12   13 1
    21   12   31 1
    22   13   14 2
    23   13   15 am
    24   15   16 1
    25   15   25 1
    26   16   17 1
    27   16   18 1
    28   18   23 ar
    29   18   19 ar
    30   19   20 ar
    31   19   38 1
    32   20   21 ar
    33   20   39 1
    34   21   22 ar
    35   21   40 1
    36   22   23 ar
    37   22   24 1
    38   23   41 1
    39   24   42 1
    40   25   26 1
    41   25   43 1
    42   25   44 1
    43   26   27 1
    44   26   45 1
    45   26   46 1
    46   27   28 1
    47   28   29 1
    48   28   47 1
    49   28   48 1
    50   29   30 1
    51   29   49 1
    52   29   50 1
    53   30   51 1
@<TRIPOS>MOLECULE
ZINC55329707
   35    35     0     0     0
SMALL
USER_CHARGES

@<TRIPOS>ATOM
      1 C1         -0.0187    1.5258    0.0104 C.3       1 <0>        -0.1456
      2 C2          0.0021   -0.0041    0.0020 C.3       1 <0>        -0.1017
      3 C3          0.7421   -0.5109    1.2415 C.3       1 <0>        -0.1576
      4 C4         -1.4333   -0.5336    0.0129 C.3       1 <0>        -0.1088
      5 C5         -1.4157   -2.0577   -0.1212 C.3       1 <0>         0.1351
      6 H1         -0.7891   -2.4841    0.6622 H         1 <0>         0.1128
      7 C6         -2.8406   -2.5981    0.0146 C.3       1 <0>         0.0477
      8 O1         -3.6878   -1.9521   -0.9377 O.3       1 <0>        -0.5638
      9 N1         -0.8765   -2.4263   -1.4325 N.pl3     1 <0>        -1.0978
     10 S1          0.0485   -3.7904   -1.5938 S.o2      1 <0>         2.7142
     11 O2          0.3926   -3.8876   -2.9690 O.2       1 <0>        -0.9512
     12 O3          1.0276   -3.7412   -0.5651 O.2       1 <0>        -0.9457
     13 C7         -0.9892   -5.1687   -1.2357 C.2       1 <0>        -0.7100
     14 C8         -1.3692   -6.1776   -2.1303 C.2       1 <0>        -0.1071
     15 C9         -2.1779   -7.0440   -1.4252 C.2       1 <0>        -0.0061
     16 O4         -2.2805   -6.5777   -0.1618 O.3       1 <0>        -0.1149
     17 C10        -1.5635   -5.4538   -0.0428 C.2       1 <0>         0.0509
     18 Br1        -1.3844   -4.4274    1.5353 Br        1 <0>         0.0608
     19 C11        -2.7919   -8.2150   -1.9354 C.2       1 <0>         0.5496
     20 O5         -2.6224   -8.5353   -3.1057 O.co2     1 <0>        -0.6474
     21 O6         -3.4921   -8.9069   -1.2061 O.co2     1 <0>        -0.6613
     22 H2          1.0039    1.9031    0.0027 H         1 <0>         0.0535
     23 H3         -0.5459    1.8868   -0.8726 H         1 <0>         0.0539
     24 H4         -0.5289    1.8773    0.9072 H         1 <0>         0.0527
     25 H5          0.5123   -0.3556   -0.8948 H         1 <0>         0.0742
     26 H6          0.2319   -0.1594    2.1383 H         1 <0>         0.0519
     27 H7          0.7568   -1.6008    1.2356 H         1 <0>         0.0652
     28 H8          1.7647   -0.1336    1.2338 H         1 <0>         0.0555
     29 H9         -1.9156   -0.2570    0.9504 H         1 <0>         0.0739
     30 H10        -1.9862   -0.1019   -0.8214 H         1 <0>         0.0810
     31 H11        -2.8407   -3.6725   -0.1690 H         1 <0>         0.0494
     32 H12        -3.2094   -2.4015    1.0213 H         1 <0>         0.0591
     33 H13        -4.6085   -2.2465   -0.9085 H         1 <0>         0.3792
     34 H14        -1.0612   -1.8713   -2.2064 H         1 <0>         0.4225
     35 H15        -1.0845   -6.2606   -3.1688 H         1 <0>         0.1759
@<TRIPOS>BOND
     1    1    2 1
     2    1   22 1
     3    1   23 1
     4    1   24 1
     5    2    3 1
     6    2    4 1
     7    2   25 1
     8    3   26 1
     9    3   27 1
    10    3   28 1
    11    4    5 1
    12    4   29 1
    13    4   30 1
    14    5    6 1
    15    5    7 1
    16    5    9 1
    17    7    8 1
    18    7   31 1
    19    7   32 1
    20    8   33 1
    21    9   10 1
    22    9   34 1
    23   10   11 2
    24   10   12 2
    25   10   13 1
    26   13   17 2
    27   13   14 1
    28   14   15 2
    29   14   35 1
    30   15   16 1
    31   15   19 1
    32   16   17 1
    33   17   18 1
    34   19   20 2
    35   19   21 1
@<TRIPOS>MOLECULE
ZINC63154156
   34    34     0     0     0
SMALL
USER_CHARGES

@<TRIPOS>ATOM
      1 C1         -1.2394    1.4427   -0.8496 C.3       1 <0>        -0.1499
      2 C2         -1.0915   -0.0779   -0.7672 C.3       1 <0>         0.0501
      3 O1         -0.1749   -0.5224   -1.7693 O.3       1 <0>        -0.3825
      4 C3          0.0357   -1.9357   -1.7787 C.3       1 <0>         0.0792
      5 C4          1.0291   -2.2960   -2.8852 C.3       1 <0>        -0.6048
      6 S1          1.2964   -4.0902   -2.8971 S.o2      1 <0>         2.5549
      7 O2          1.9815   -4.4908   -1.7184 O.2       1 <0>        -0.9963
      8 O3          0.1122   -4.7587   -3.3093 O.2       1 <0>        -1.0150
      9 N1          2.3778   -4.3512   -4.1238 N.2       1 <0>        -1.1226
     10 C5          2.7189   -5.6571   -4.4889 C.ar      1 <0>         0.3383
     11 C6          2.3229   -6.1616   -5.7217 C.ar      1 <0>        -0.0886
     12 C7          2.6624   -7.4528   -6.0795 C.ar      1 <0>         0.0067
     13 C8          3.3951   -8.2424   -5.2124 C.ar      1 <0>        -0.7305
     14 C9          3.7909   -7.7438   -3.9849 C.ar      1 <0>         0.0107
     15 C10         3.4597   -6.4517   -3.6224 C.ar      1 <0>        -0.1375
     16 Cl1         3.9633   -5.8244   -2.0841 Cl        1 <0>        -0.0302
     17 S2          3.8250   -9.8880   -5.6726 S.o2      1 <0>         2.7095
     18 O4          4.0437  -10.6036   -4.4646 O.2       1 <0>        -0.9743
     19 O5          2.8706  -10.3014   -6.6409 O.2       1 <0>        -0.9741
     20 N2          5.2856   -9.8134   -6.4495 N.pl3     1 <0>        -1.2535
     21 Cl2         1.4025   -5.1715   -6.8108 Cl        1 <0>        -0.0650
     22 H1         -0.2687    1.9114   -0.6877 H         1 <0>         0.0624
     23 H2         -1.6162    1.7183   -1.8345 H         1 <0>         0.0626
     24 H3         -1.9385    1.7817   -0.0852 H         1 <0>         0.0695
     25 H4         -0.7147   -0.3535    0.2178 H         1 <0>         0.0491
     26 H5         -2.0622   -0.5466   -0.9291 H         1 <0>         0.0492
     27 H6          0.4359   -2.2498   -0.8147 H         1 <0>         0.0597
     28 H7         -0.9116   -2.4430   -1.9616 H         1 <0>         0.0585
     29 H8          0.6288   -1.9819   -3.8492 H         1 <0>         0.1267
     30 H9          1.9763   -1.7888   -2.7023 H         1 <0>         0.1274
     31 H10         2.3547   -7.8457   -7.0373 H         1 <0>         0.1399
     32 H11         4.3631   -8.3633   -3.3102 H         1 <0>         0.1386
     33 H12         5.7281   -8.9586   -6.5693 H         1 <0>         0.4171
     34 H13         5.6986  -10.6246   -6.7847 H         1 <0>         0.4146
@<TRIPOS>BOND
     1    1    2 1
     2    1   22 1
     3    1   23 1
     4    1   24 1
     5    2    3 1
     6    2   25 1
     7    2   26 1
     8    3    4 1
     9    4    5 1
    10    4   27 1
    11    4   28 1
    12    5    6 1
    13    5   29 1
    14    5   30 1
    15    6    7 2
    16    6    8 2
    17    6    9 1
    18    9   10 1
    19   10   15 ar
    20   10   11 ar
    21   11   12 ar
    22   11   21 1
    23   12   13 ar
    24   12   31 1
    25   13   14 ar
    26   13   17 1
    27   14   15 ar
    28   14   32 1
    29   15   16 1
    30   17   18 2
    31   17   19 2
    32   17   20 1
    33   20   33 1
    34   20   34 1
@<TRIPOS>MOLECULE
ZINC66276611
   31    32     0     0     0
SMALL
USER_CHARGES

@<TRIPOS>ATOM
      1 C1         -0.0187    1.5258    0.0104 C.3       1 <0>        -0.1648
      2 C2          0.0021   -0.0041    0.0020 C.3       1 <0>         0.1297
      3 N1          0.6878   -0.4765   -1.2033 N.am      1 <0>        -0.7406
      4 C3          0.8268   -1.7986   -1.4250 C.2       1 <0>         0.6942
      5 O1          0.3834   -2.5989   -0.6250 O.2       1 <0>        -0.5293
      6 N2          1.4577   -2.2333   -2.5339 N.am      1 <0>        -0.6882
      7 C4          1.5967   -3.5554   -2.7556 C.2       1 <0>         0.5391
      8 O2          1.1544   -4.3537   -1.9576 O.2       1 <0>        -0.4488
      9 C5          2.3021   -4.0414   -3.9955 C.3       1 <0>        -0.1442
     10 S1          2.3267   -5.8552   -4.0055 S.3       1 <0>         0.0455
     11 C6          3.1731   -6.2618   -5.4964 C.2       1 <0>         0.1913
     12 N3          3.6491   -5.3912   -6.3545 N.2       1 <0>        -0.5666
     13 C7          4.2395   -6.0419   -7.3881 C.ar      1 <0>         0.2131
     14 C8          4.1093   -7.4193   -7.1333 C.ar      1 <0>        -0.0271
     15 N4          3.4365   -7.5304   -5.9284 N.2       1 <0>        -0.5493
     16 C9          4.6293   -8.3322   -8.0376 C.ar      1 <0>        -0.0139
     17 C10         5.2645   -7.8446   -9.1705 C.ar      1 <0>        -0.1750
     18 C11         5.3590   -6.4764   -9.3621 C.ar      1 <0>         0.1111
     19 N5          4.8582   -5.6258   -8.4907 N.ar      1 <0>        -0.4600
     20 Br1         5.9954   -9.0383  -10.4420 Br        1 <0>        -0.0778
     21 H1          1.0039    1.9031    0.0027 H         1 <0>         0.0624
     22 H2         -0.5459    1.8868   -0.8726 H         1 <0>         0.0624
     23 H3         -0.5289    1.8773    0.9072 H         1 <0>         0.0758
     24 H4          0.5293   -0.3651    0.8851 H         1 <0>         0.0689
     25 H5         -1.0205   -0.3814    0.0098 H         1 <0>         0.0689
     26 H6          1.0417    0.1622   -1.8418 H         1 <0>         0.3987
     27 H7          1.8116   -1.5946   -3.1724 H         1 <0>         0.4118
     28 H8          1.7749   -3.6803   -4.8786 H         1 <0>         0.1227
     29 H9          3.3247   -3.6641   -4.0032 H         1 <0>         0.1226
     30 H10         4.5426   -9.3948   -7.8646 H         1 <0>         0.1212
     31 H11         5.8543   -6.0991  -10.2446 H         1 <0>         0.1464
@<TRIPOS>BOND
     1    1    2 1
     2    1   21 1
     3    1   22 1
     4    1   23 1
     5    2    3 1
     6    2   24 1
     7    2   25 1
     8    3    4 am
     9    3   26 1
    10    4    5 2
    11    4    6 am
    12    6    7 am
    13    6   27 1
    14    7    8 2
    15    7    9 1
    16    9   10 1
    17    9   28 1
    18    9   29 1
    19   10   11 1
    20   11   12 2
    21   11   15 1
    22   12   13 1
    23   13   19 ar
    24   13   14 ar
    25   14   16 ar
    26   14   15 1
    27   16   17 ar
    28   16   30 1
    29   17   18 ar
    30   17   20 1
    31   18   19 ar
    32   18   31 1
@<TRIPOS>MOLECULE
ZINC06615243
   38    39     0     0     0
SMALL
USER_CHARGES
4-[3-(4-chloro-3-nitro-phenyl)prop-2-enoylthiocarbamoylamino]benzoic acid
@<TRIPOS>ATOM
      1 C1         12.9740    2.8332    0.6461 C.ar      1 <0>        -0.0835
      2 C2         11.7919    2.1369    0.7545 C.ar      1 <0>        -0.1325
      3 C3         10.7908    2.3096   -0.1968 C.ar      1 <0>         0.0972
      4 C4         10.9835    3.1819   -1.2640 C.ar      1 <0>        -0.0857
      5 C5         12.1611    3.8854   -1.3759 C.ar      1 <0>        -0.0696
      6 C6         13.1688    3.7146   -0.4217 C.ar      1 <0>        -0.0975
      7 C7         14.4338    4.4626   -0.5410 C.2       1 <0>         0.4869
      8 O1         15.3084    4.3135    0.2892 O.co2     1 <0>        -0.6310
      9 N1          9.5951    1.6034   -0.0835 N.pl3     1 <0>        -0.6077
     10 C8          8.4223    2.2202   -0.3297 C.2       1 <0>         0.5020
     11 S1          8.3892    3.9031   -0.6424 S.2       1 <0>        -0.4801
     12 N2          7.2755    1.5121   -0.3297 N.am      1 <0>        -0.6408
     13 C9          6.1027    2.1288   -0.5758 C.2       1 <0>         0.5187
     14 O2          6.0792    3.3249   -0.7981 O.2       1 <0>        -0.4030
     15 C10         4.8582    1.3604   -0.5758 C.2       1 <0>        -0.1884
     16 C11         3.6841    1.9778   -0.8222 C.2       1 <0>        -0.0228
     17 C12         2.4322    1.2048   -0.8222 C.ar      1 <0>        -0.0613
     18 C13         2.4554   -0.1705   -0.5671 C.ar      1 <0>        -0.0448
     19 C14         1.2790   -0.8882   -0.5691 C.ar      1 <0>        -0.1090
     20 C15         0.0750   -0.2508   -0.8230 C.ar      1 <0>         0.0184
     21 C16         0.0444    1.1107   -1.0765 C.ar      1 <0>        -0.0398
     22 C17         1.2133    1.8414   -1.0777 C.ar      1 <0>        -0.0213
     23 N3         -1.2459    1.7815   -1.3527 N.pl3     1 <0>         0.0243
     24 O3         -1.2745    2.9785   -1.5757 O.2       1 <0>        -0.1539
     25 O4         -2.2790    1.1363   -1.3570 O.3       1 <0>        -0.1331
     26 Cl1        -1.4020   -1.1631   -0.8241 Cl        1 <0>         0.0002
     27 H1         13.7502    2.6991    1.3850 H         1 <0>         0.1331
     28 H2         11.6407    1.4559    1.5790 H         1 <0>         0.1179
     29 H3         10.2063    3.3102   -2.0028 H         1 <0>         0.1326
     30 H4         12.3081    4.5656   -2.2017 H         1 <0>         0.1375
     31 H5          9.6068    0.6679    0.1725 H         1 <0>         0.4025
     32 H6          7.2943    0.5586   -0.1525 H         1 <0>         0.4081
     33 H7          4.8791    0.2988   -0.3785 H         1 <0>         0.1344
     34 H8          3.6632    3.0395   -1.0195 H         1 <0>         0.1527
     35 H9          3.3930   -0.6685   -0.3686 H         1 <0>         0.1572
     36 H10         1.2953   -1.9500   -0.3719 H         1 <0>         0.1620
     37 H11         1.1880    2.9028   -1.2758 H         1 <0>         0.1703
     38 O5         14.6199    5.3117   -1.5707 O.co2     1 <0>        -0.7500
@<TRIPOS>BOND
     1    1    6 ar
     2    1    2 ar
     3    1   27 1
     4    2    3 ar
     5    2   28 1
     6    3    4 ar
     7    3    9 1
     8    4    5 ar
     9    4   29 1
    10    5    6 ar
    11    5   30 1
    12    6    7 1
    13    7    8 2
    14    7   38 1
    15    9   10 1
    16    9   31 1
    17   10   11 2
    18   10   12 1
    19   12   13 am
    20   12   32 1
    21   13   14 2
    22   13   15 1
    23   15   16 2
    24   15   33 1
    25   16   17 1
    26   16   34 1
    27   17   22 ar
    28   17   18 ar
    29   18   19 ar
    30   18   35 1
    31   19   20 ar
    32   19   36 1
    33   20   21 ar
    34   20   26 1
    35   21   22 ar
    36   21   23 1
    37   22   37 1
    38   23   24 2
    39   23   25 1
@<TRIPOS>MOLECULE
ZINC13079133
   53    54     0     0     0
SMALL
USER_CHARGES
3-[[(3-methoxy-4-propoxy-benzoyl)amino]sulfamoyl]-4,5-dimethyl-benzoic acid
@<TRIPOS>ATOM
      1 C1          2.2107    4.0296    1.0091 C.3       1 <0>        -0.1512
      2 C2          0.8736    3.3064    0.8356 C.3       1 <0>        -0.1219
      3 C3          1.1192    1.8004    0.7230 C.3       1 <0>         0.0518
      4 O1         -0.1297    1.1250    0.5609 O.3       1 <0>        -0.2997
      5 C4         -0.0886   -0.2274    0.4451 C.ar      1 <0>         0.1365
      6 C5          1.1310   -0.8895    0.4869 C.ar      1 <0>        -0.1793
      7 C6          1.1778   -2.2617    0.3708 C.ar      1 <0>        -0.0728
      8 C7         -0.0035   -2.9900    0.2100 C.ar      1 <0>        -0.1314
      9 C8         -1.2310   -2.3238    0.1674 C.ar      1 <0>        -0.1085
     10 C9         -1.2716   -0.9484    0.2902 C.ar      1 <0>         0.0902
     11 O2         -2.4651   -0.2974    0.2548 O.3       1 <0>        -0.3039
     12 C10        -3.6369   -1.0992    0.0937 C.3       1 <0>         0.0229
     13 C11         0.0451   -4.4599    0.0850 C.2       1 <0>         0.5724
     14 O3         -0.9872   -5.1012    0.0472 O.2       1 <0>        -0.5217
     15 N1          1.2336   -5.0912    0.0126 N.am      1 <0>        -0.5042
     16 N2          1.2802   -6.4735   -0.2111 N.pl3     1 <0>        -0.9050
     17 S1          2.1421   -7.0767   -1.4900 S.o2      1 <0>         2.6953
     18 O4          2.2138   -8.4836   -1.3040 O.2       1 <0>        -0.9420
     19 O5          1.5933   -6.4903   -2.6623 O.2       1 <0>        -0.9408
     20 C12         3.7880   -6.4648   -1.3440 C.ar      1 <0>        -0.6939
     21 C13         4.2933   -5.6130   -2.3045 C.ar      1 <0>         0.0123
     22 C14         5.5976   -5.1291   -2.1872 C.ar      1 <0>        -0.1313
     23 C15         6.3821   -5.5116   -1.0969 C.ar      1 <0>        -0.0130
     24 C16         5.8643   -6.3637   -0.1440 C.ar      1 <0>        -0.1260
     25 C17         4.5686   -6.8351   -0.2636 C.ar      1 <0>         0.0069
     26 C18         4.0076   -7.7610    0.7848 C.3       1 <0>        -0.1370
     27 C19         6.7091   -6.7772    1.0334 C.3       1 <0>        -0.1103
     28 C20         6.1456   -4.2171   -3.2119 C.2       1 <0>         0.4893
     29 O6          5.4611   -3.8865   -4.1593 O.co2     1 <0>        -0.6217
     30 H1          2.7018    3.6729    1.9145 H         1 <0>         0.0578
     31 H2          2.8470    3.8286    0.1473 H         1 <0>         0.0601
     32 H3          2.0357    5.1025    1.0893 H         1 <0>         0.0640
     33 H4          0.3824    3.6631   -0.0698 H         1 <0>         0.0744
     34 H5          0.2373    3.5074    1.6974 H         1 <0>         0.0728
     35 H6          1.6103    1.4437    1.6284 H         1 <0>         0.0651
     36 H7          1.7555    1.5995   -0.1388 H         1 <0>         0.0681
     37 H8          2.0450   -0.3278    0.6112 H         1 <0>         0.1459
     38 H9          2.1278   -2.7743    0.4044 H         1 <0>         0.1341
     39 H10        -2.1464   -2.8833    0.0433 H         1 <0>         0.1514
     40 H11        -3.7120   -1.8035    0.9223 H         1 <0>         0.0569
     41 H12        -4.5177   -0.4572    0.0818 H         1 <0>         0.1016
     42 H13        -3.5750   -1.6486   -0.8457 H         1 <0>         0.0584
     43 H14         2.0568   -4.5886    0.1154 H         1 <0>         0.4226
     44 H15         0.8076   -7.0771    0.3831 H         1 <0>         0.4262
     45 H16         3.6812   -5.3209   -3.1449 H         1 <0>         0.1496
     46 H17         7.3919   -5.1412   -1.0004 H         1 <0>         0.1407
     47 H18         4.2769   -8.7892    0.5431 H         1 <0>         0.0926
     48 H19         4.4182   -7.4975    1.7595 H         1 <0>         0.0825
     49 H20         2.9221   -7.6661    0.8101 H         1 <0>         0.0589
     50 H21         6.5651   -6.0698    1.8501 H         1 <0>         0.0685
     51 H22         6.4139   -7.7743    1.3601 H         1 <0>         0.0670
     52 H23         7.7593   -6.7864    0.7417 H         1 <0>         0.0687
     53 O7          7.4046   -3.7521   -3.0958 O.co2     1 <0>        -0.7497
@<TRIPOS>BOND
     1    1    2 1
     2    1   30 1
     3    1   31 1
     4    1   32 1
     5    2    3 1
     6    2   33 1
     7    2   34 1
     8    3    4 1
     9    3   35 1
    10    3   36 1
    11    4    5 1
    12    5   10 ar
    13    5    6 ar
    14    6    7 ar
    15    6   37 1
    16    7    8 ar
    17    7   38 1
    18    8    9 ar
    19    8   13 1
    20    9   10 ar
    21    9   39 1
    22   10   11 1
    23   11   12 1
    24   12   40 1
    25   12   41 1
    26   12   42 1
    27   13   14 2
    28   13   15 am
    29   15   16 1
    30   15   43 1
    31   16   17 1
    32   16   44 1
    33   17   18 2
    34   17   19 2
    35   17   20 1
    36   20   25 ar
    37   20   21 ar
    38   21   22 ar
    39   21   45 1
    40   22   23 ar
    41   22   28 1
    42   23   24 ar
    43   23   46 1
    44   24   25 ar
    45   24   27 1
    46   25   26 1
    47   26   47 1
    48   26   48 1
    49   26   49 1
    50   27   50 1
    51   27   51 1
    52   27   52 1
    53   28   29 2
    54   28   53 1
@<TRIPOS>MOLECULE
ZINC32951077
   47    49     0     0     0
SMALL
USER_CHARGES

@<TRIPOS>ATOM
      1 C1          0.0183    1.5202   -0.0197 C.3       1 <0>        -0.1494
      2 C2          0.0358   -0.0096   -0.0273 C.3       1 <0>         0.0593
      3 O1         -1.3058   -0.5014   -0.0070 O.3       1 <0>        -0.3285
      4 C3         -1.4686   -1.8516   -0.0107 C.ar      1 <0>         0.0158
      5 C4         -0.3589   -2.6835   -0.0276 C.ar      1 <0>        -0.1568
      6 C5         -0.5233   -4.0548   -0.0313 C.ar      1 <0>        -0.1485
      7 C6         -1.8001   -4.6006   -0.0182 C.ar      1 <0>         0.2536
      8 C7         -2.9105   -3.7670   -0.0012 C.ar      1 <0>        -0.2300
      9 C8         -2.7442   -2.3960    0.0082 C.ar      1 <0>        -0.0894
     10 N1         -1.9676   -5.9899   -0.0224 N.2       1 <0>        -1.0878
     11 S1         -3.4904   -6.6404   -0.0067 S.o2      1 <0>         2.6293
     12 O2         -4.0649   -6.2990    1.2474 O.2       1 <0>        -1.0147
     13 O3         -4.0955   -6.2877   -1.2431 O.2       1 <0>        -1.0177
     14 C9         -3.3085   -8.3929   -0.0169 C.2       1 <0>        -0.4650
     15 C10        -3.2319   -9.2051   -1.1505 C.2       1 <0>        -0.0543
     16 C11        -3.0946  -10.4954   -0.6685 C.2       1 <0>        -0.0723
     17 N2         -3.0957  -10.3961    0.6939 N.pl3     1 <0>        -0.3698
     18 H1         -3.0138  -11.1418    1.3089 H         1 <0>         0.4424
     19 N3         -3.2155   -9.1640    1.0364 N.2       1 <0>        -0.1567
     20 C12        -2.9726  -11.7270   -1.4641 C.2       1 <0>         0.6018
     21 O4         -2.9872  -11.6702   -2.6790 O.2       1 <0>        -0.4930
     22 N4         -2.8446  -12.9182   -0.8466 N.am      1 <0>        -0.6736
     23 C13        -2.8258  -14.0970   -1.5986 C.ar      1 <0>         0.1532
     24 C14        -3.4089  -15.2531   -1.0951 C.ar      1 <0>        -0.1345
     25 C15        -3.3894  -16.4158   -1.8399 C.ar      1 <0>        -0.0903
     26 C16        -2.7902  -16.4308   -3.0861 C.ar      1 <0>        -0.0906
     27 C17        -2.2083  -15.2813   -3.5910 C.ar      1 <0>        -0.0182
     28 C18        -2.2293  -14.1129   -2.8523 C.ar      1 <0>        -0.1077
     29 Cl1        -1.4566  -15.3049   -5.1556 Cl        1 <0>        -0.0604
     30 C19        -2.7704  -17.7017   -3.8957 C.3       1 <0>        -0.1178
     31 H2          1.0417    1.8953   -0.0352 H         1 <0>         0.0696
     32 H3         -0.5145    1.8819   -0.8991 H         1 <0>         0.0617
     33 H4         -0.4845    1.8734    0.8805 H         1 <0>         0.0616
     34 H5          0.5386   -0.3628   -0.9275 H         1 <0>         0.0525
     35 H6          0.5686   -0.3713    0.8522 H         1 <0>         0.0523
     36 H7          0.6340   -2.2588   -0.0382 H         1 <0>         0.1107
     37 H8          0.3409   -4.7024   -0.0449 H         1 <0>         0.1153
     38 H9         -3.9039   -4.1907    0.0090 H         1 <0>         0.1042
     39 H10        -3.6077   -1.7475    0.0262 H         1 <0>         0.1116
     40 H11        -3.2719   -8.8928   -2.1836 H         1 <0>         0.1806
     41 H12        -2.7656  -12.9578    0.1193 H         1 <0>         0.4090
     42 H13        -3.8769  -15.2425   -0.1218 H         1 <0>         0.1332
     43 H14        -3.8424  -17.3146   -1.4484 H         1 <0>         0.1369
     44 H15        -1.7787  -13.2148   -3.2482 H         1 <0>         0.1536
     45 H16        -3.6600  -17.7461   -4.5240 H         1 <0>         0.0752
     46 H17        -1.8802  -17.7181   -4.5244 H         1 <0>         0.0733
     47 H18        -2.7568  -18.5602   -3.2241 H         1 <0>         0.0703
@<TRIPOS>BOND
     1    1    2 1
     2    1   31 1
     3    1   32 1
     4    1   33 1
     5    2    3 1
     6    2   34 1
     7    2   35 1
     8    3    4 1
     9    4    9 ar
    10    4    5 ar
    11    5    6 ar
    12    5   36 1
    13    6    7 ar
    14    6   37 1
    15    7    8 ar
    16    7   10 1
    17    8    9 ar
    18    8   38 1
    19    9   39 1
    20   10   11 1
    21   11   12 2
    22   11   13 2
    23   11   14 1
    24   14   19 2
    25   14   15 1
    26   15   16 2
    27   15   40 1
    28   16   17 1
    29   16   20 1
    30   17   18 1
    31   17   19 1
    32   20   21 2
    33   20   22 am
    34   22   23 1
    35   22   41 1
    36   23   28 ar
    37   23   24 ar
    38   24   25 ar
    39   24   42 1
    40   25   26 ar
    41   25   43 1
    42   26   27 ar
    43   26   30 1
    44   27   28 ar
    45   27   29 1
    46   28   44 1
    47   30   45 1
    48   30   46 1
    49   30   47 1
@<TRIPOS>MOLECULE
ZINC44319256
   40    40     0     0     0
SMALL
USER_CHARGES

@<TRIPOS>ATOM
      1 C1         -0.0187    1.5258    0.0104 C.3       1 <0>        -0.1844
      2 C2          0.0021   -0.0041    0.0020 C.3       1 <0>         0.1353
      3 C3          0.7421   -0.5109    1.2415 C.3       1 <0>        -0.1859
      4 C4         -1.4333   -0.5336    0.0129 C.3       1 <0>        -0.1369
      5 O1          0.6709   -0.4649   -1.1737 O.3       1 <0>        -0.3644
      6 C5          1.9522   -0.0848   -1.3367 C.2       1 <0>         0.6500
      7 O2          2.4879    0.6189   -0.5034 O.2       1 <0>        -0.5641
      8 N1          2.6407   -0.4850   -2.4240 N.am      1 <0>        -0.6814
      9 C6          4.0349   -0.0714   -2.6014 C.3       1 <0>         0.1005
     10 H1          4.1672    0.9374   -2.2104 H         1 <0>         0.0936
     11 C7          4.3875   -0.0917   -4.0900 C.3       1 <0>        -0.0715
     12 C8          3.5687    0.9456   -4.8144 C.ar      1 <0>        -0.0701
     13 C9          2.3811    0.5872   -5.4230 C.ar      1 <0>        -0.0293
     14 C10         1.6290    1.5384   -6.0880 C.ar      1 <0>        -0.0876
     15 C11         2.0640    2.8518   -6.1449 C.ar      1 <0>         0.0237
     16 C12         3.2516    3.2139   -5.5372 C.ar      1 <0>        -0.0506
     17 C13         4.0042    2.2616   -4.8654 C.ar      1 <0>         0.1917
     18 O3          5.1694    2.6166   -4.2624 O.3       1 <0>        -0.4670
     19 N2          3.7174    4.6176   -5.5988 N.pl3     1 <0>         0.0314
     20 O4          3.3902    5.4013   -4.7384 O.2       1 <0>        -0.1144
     21 O5          4.4249    4.9802   -6.5096 O.3       1 <0>        -0.1322
     22 Cl1         1.1180    4.0438   -6.9803 Cl        1 <0>        -0.0118
     23 Br1         0.0047    1.0446   -6.9210 Br        1 <0>         0.0033
     24 C14         4.9389   -1.0207   -1.8580 C.2       1 <0>         0.4934
     25 O6          4.6108   -2.1857   -1.7110 O.co2     1 <0>        -0.6823
     26 O7          5.9984   -0.6238   -1.4037 O.co2     1 <0>        -0.6829
     27 H2          1.0039    1.9031    0.0027 H         1 <0>         0.0894
     28 H3         -0.5459    1.8868   -0.8726 H         1 <0>         0.0551
     29 H4         -0.5289    1.8773    0.9072 H         1 <0>         0.0650
     30 H5          0.2319   -0.1594    2.1383 H         1 <0>         0.0638
     31 H6          0.7568   -1.6008    1.2356 H         1 <0>         0.0588
     32 H7          1.7647   -0.1336    1.2338 H         1 <0>         0.0910
     33 H8         -1.9605   -0.1726   -0.8702 H         1 <0>         0.0630
     34 H9         -1.4185   -1.6235    0.0069 H         1 <0>         0.0650
     35 H10        -1.9435   -0.1821    0.9097 H         1 <0>         0.0757
     36 H11         2.2131   -1.0467   -3.0892 H         1 <0>         0.3946
     37 H12         5.4474    0.1295   -4.2154 H         1 <0>         0.1049
     38 H13         4.1709   -1.0777   -4.5013 H         1 <0>         0.0944
     39 H14         2.0402   -0.4366   -5.3797 H         1 <0>         0.1644
     40 H15         5.9459    2.5450   -4.8342 H         1 <0>         0.4088
@<TRIPOS>BOND
     1    1    2 1
     2    1   27 1
     3    1   28 1
     4    1   29 1
     5    2    3 1
     6    2    4 1
     7    2    5 1
     8    3   30 1
     9    3   31 1
    10    3   32 1
    11    4   33 1
    12    4   34 1
    13    4   35 1
    14    5    6 1
    15    6    7 2
    16    6    8 am
    17    8    9 1
    18    8   36 1
    19    9   10 1
    20    9   11 1
    21    9   24 1
    22   11   12 1
    23   11   37 1
    24   11   38 1
    25   12   17 ar
    26   12   13 ar
    27   13   14 ar
    28   13   39 1
    29   14   15 ar
    30   14   23 1
    31   15   16 ar
    32   15   22 1
    33   16   17 ar
    34   16   19 1
    35   17   18 1
    36   18   40 1
    37   19   20 2
    38   19   21 1
    39   24   25 2
    40   24   26 1
@<TRIPOS>MOLECULE
ZINC64137054
   51    53     0     0     0
SMALL
USER_CHARGES

@<TRIPOS>ATOM
      1 C1         -0.3963    1.4712    0.0531 C.3       1 <0>        -0.1439
      2 C2         -0.2700   -0.0535    0.0404 C.3       1 <0>        -0.1377
      3 C3          0.5677   -0.4858   -1.1648 C.3       1 <0>         0.1168
      4 N1          0.6886   -1.9457   -1.1770 N.pl3     1 <0>        -0.5582
      5 C4          1.7474   -2.5657   -0.5079 C.ar      1 <0>         0.2084
      6 C5          2.8685   -1.8257   -0.1525 C.ar      1 <0>        -0.1894
      7 C6          3.9177   -2.4368    0.5048 C.ar      1 <0>        -0.0907
      8 C7          3.8515   -3.7846    0.8083 C.ar      1 <0>        -0.1785
      9 C8          2.7370   -4.5221    0.4571 C.ar      1 <0>        -0.0626
     10 C9          1.6805   -3.9167   -0.1998 C.ar      1 <0>        -0.1195
     11 C10         0.4702   -4.7310   -0.5657 C.3       1 <0>         0.2545
     12 H1         -0.1279   -4.9037    0.3290 H         1 <0>         0.0284
     13 C11        -0.3693   -4.0263   -1.5896 C.2       1 <0>        -0.4937
     14 C12        -0.2401   -2.7061   -1.8403 C.2       1 <0>         0.5099
     15 O1         -1.0369   -2.1259   -2.7645 O.3       1 <0>        -0.6534
     16 C13        -1.3307   -4.7689   -2.3130 C.2       1 <0>         0.5419
     17 O2         -1.9499   -4.2420   -3.2250 O.2       1 <0>        -0.5802
     18 N2         -1.5632   -6.0532   -1.9977 N.2       1 <0>        -0.5833
     19 C14        -2.4667   -6.7510   -2.6775 C.2       1 <0>         0.3547
     20 N3         -3.2444   -6.3416   -3.7195 N.pl3     1 <0>        -0.6322
     21 H2         -3.1797   -5.4350   -4.0583 H         1 <0>         0.4295
     22 C15        -4.1134   -7.2301   -4.2758 C.2       1 <0>         0.1110
     23 C16        -4.1477   -8.4615   -3.7572 C.2       1 <0>        -0.2556
     24 S1         -2.9229   -8.3554   -2.4659 S.3       1 <0>         0.1411
     25 C17        -5.0012   -6.8405   -5.4295 C.3       1 <0>        -0.0568
     26 C18        -6.2519   -6.1857   -4.9021 C.2       1 <0>         0.4602
     27 O3         -6.4064   -6.0494   -3.7115 O.2       1 <0>        -0.4872
     28 O4         -7.1941   -5.7539   -5.7550 O.3       1 <0>        -0.3528
     29 C19        -8.3537   -5.1429   -5.1856 C.3       1 <0>         0.0591
     30 C20        -9.3076   -4.7183   -6.3039 C.3       1 <0>        -0.1510
     31 O5          0.8946   -5.9886   -1.0951 O.3       1 <0>        -0.5818
     32 H3          0.5958    1.9174    0.1213 H         1 <0>         0.0513
     33 H4         -0.8817    1.8032   -0.8646 H         1 <0>         0.0547
     34 H5         -0.9930    1.7792    0.9117 H         1 <0>         0.0519
     35 H6          0.2155   -0.3856    0.9581 H         1 <0>         0.0586
     36 H7         -1.2621   -0.4998   -0.0279 H         1 <0>         0.0652
     37 H8          0.0823   -0.1538   -2.0825 H         1 <0>         0.0872
     38 H9          1.5598   -0.0396   -1.0966 H         1 <0>         0.0664
     39 H10         2.9189   -0.7733   -0.3899 H         1 <0>         0.1196
     40 H11         4.7894   -1.8627    0.7821 H         1 <0>         0.1148
     41 H12         4.6735   -4.2620    1.3210 H         1 <0>         0.1129
     42 H13         2.6905   -5.5743    0.6961 H         1 <0>         0.1225
     43 H14        -4.7571   -9.3044   -4.0480 H         1 <0>         0.1986
     44 H15        -4.4706   -6.1420   -6.0765 H         1 <0>         0.1232
     45 H16        -5.2694   -7.7307   -5.9983 H         1 <0>         0.1372
     46 H17        -8.8555   -5.8554   -4.5310 H         1 <0>         0.0681
     47 H18        -8.0567   -4.2667   -4.6092 H         1 <0>         0.0689
     48 H19       -10.1920   -4.2522   -5.8696 H         1 <0>         0.0789
     49 H20        -8.8058   -4.0057   -6.9585 H         1 <0>         0.0672
     50 H21        -9.6046   -5.5944   -6.8803 H         1 <0>         0.0661
     51 H22         0.1745   -6.6174   -1.2403 H         1 <0>         0.3795
@<TRIPOS>BOND
     1    1    2 1
     2    1   32 1
     3    1   33 1
     4    1   34 1
     5    2    3 1
     6    2   35 1
     7    2   36 1
     8    3    4 1
     9    3   37 1
    10    3   38 1
    11    4   14 1
    12    4    5 1
    13    5   10 ar
    14    5    6 ar
    15    6    7 ar
    16    6   39 1
    17    7    8 ar
    18    7   40 1
    19    8    9 ar
    20    8   41 1
    21    9   10 ar
    22    9   42 1
    23   10   11 1
    24   11   12 1
    25   11   13 1
    26   11   31 1
    27   13   14 2
    28   13   16 1
    29   14   15 1
    30   16   17 2
    31   16   18 1
    32   18   19 2
    33   19   24 1
    34   19   20 1
    35   20   21 1
    36   20   22 1
    37   22   23 2
    38   22   25 1
    39   23   24 1
    40   23   43 1
    41   25   26 1
    42   25   44 1
    43   25   45 1
    44   26   27 2
    45   26   28 1
    46   28   29 1
    47   29   30 1
    48   29   46 1
    49   29   47 1
    50   30   48 1
    51   30   49 1
    52   30   50 1
    53   31   51 1
@<TRIPOS>MOLECULE
ZINC00413936
   39    41     0     0     0
SMALL
USER_CHARGES
methyl 2-(dimethylBLAHyl)sulfanylacetate
@<TRIPOS>ATOM
      1 C1          7.1609    4.4951   -0.1632 C.3       1 <0>        -0.0864
      2 C2          5.9320    3.6308   -0.0453 C.ar      1 <0>         0.3467
      3 N1          4.7467    4.1853   -0.2713 N.ar      1 <0>        -0.4608
      4 C3          3.6930    3.4012   -0.1598 C.ar      1 <0>         0.1197
      5 C4          3.7764    2.0280    0.1831 C.ar      1 <0>        -0.1746
      6 C5          2.5140    1.3123    0.2614 C.2       1 <0>        -0.0903
      7 C6          1.3949    2.0254   -0.0004 C.2       1 <0>        -0.1337
      8 S1          1.9613    3.6694   -0.3588 S.3       1 <0>         0.1245
      9 C7         -0.0187    1.5310    0.0105 C.3       1 <0>        -0.0384
     10 C8          0.0021   -0.0041    0.0020 C.3       1 <0>        -0.0870
     11 H1          0.3139   -0.3603   -0.9798 H         1 <0>         0.0788
     12 C9          0.9958   -0.4860    1.0631 C.3       1 <0>        -0.1140
     13 C10         2.4236   -0.1693    0.6182 C.3       1 <0>        -0.0670
     14 C11        -1.3955   -0.5383    0.3220 C.3       1 <0>        -0.1476
     15 C12         5.0804    1.5004    0.4121 C.ar      1 <0>         0.1953
     16 N2          6.0873    2.3628    0.2772 N.ar      1 <0>        -0.5417
     17 S2          5.3446   -0.1866    0.8469 S.3       1 <0>         0.0818
     18 C13         7.1492   -0.1962    0.9867 C.3       1 <0>        -0.1450
     19 C14         7.6166   -1.5788    1.3621 C.2       1 <0>         0.4806
     20 O1          6.8122   -2.4666    1.5191 O.2       1 <0>        -0.4919
     21 O2          8.9265   -1.8240    1.5222 O.3       1 <0>        -0.3502
     22 C15         9.3042   -3.1786    1.8839 C.3       1 <0>         0.0352
     23 H2          7.3813    4.9471    0.8039 H         1 <0>         0.0914
     24 H3          8.0061    3.8838   -0.4796 H         1 <0>         0.0899
     25 H4          6.9841    5.2795   -0.8990 H         1 <0>         0.0907
     26 H5         -0.5408    1.8950   -0.8744 H         1 <0>         0.0880
     27 H6         -0.5238    1.8854    0.9090 H         1 <0>         0.0911
     28 H7          0.7904    0.0181    2.0074 H         1 <0>         0.0692
     29 H8          0.8887   -1.5624    1.1975 H         1 <0>         0.0766
     30 H9          3.1166   -0.3922    1.4294 H         1 <0>         0.0860
     31 H10         2.6757   -0.7709   -0.2551 H         1 <0>         0.0872
     32 H11        -2.1013   -0.1816   -0.4280 H         1 <0>         0.0589
     33 H12        -1.3781   -1.6281    0.3155 H         1 <0>         0.0609
     34 H13        -1.7025   -0.1857    1.3067 H         1 <0>         0.0581
     35 H14         7.5892    0.0891    0.0311 H         1 <0>         0.1381
     36 H15         7.4579    0.5128    1.7549 H         1 <0>         0.1382
     37 H16         8.8384   -3.4445    2.8328 H         1 <0>         0.0671
     38 H17         8.9697   -3.8683    1.1090 H         1 <0>         0.0672
     39 H18        10.3881   -3.2398    1.9815 H         1 <0>         0.1071
@<TRIPOS>BOND
     1    1    2 1
     2    1   23 1
     3    1   24 1
     4    1   25 1
     5    2   16 ar
     6    2    3 ar
     7    3    4 ar
     8    4    8 1
     9    4    5 ar
    10    5    6 1
    11    5   15 ar
    12    6   13 1
    13    6    7 2
    14    7    8 1
    15    7    9 1
    16    9   10 1
    17    9   26 1
    18    9   27 1
    19   10   11 1
    20   10   12 1
    21   10   14 1
    22   12   13 1
    23   12   28 1
    24   12   29 1
    25   13   30 1
    26   13   31 1
    27   14   32 1
    28   14   33 1
    29   14   34 1
    30   15   16 ar
    31   15   17 1
    32   17   18 1
    33   18   19 1
    34   18   35 1
    35   18   36 1
    36   19   20 2
    37   19   21 1
    38   21   22 1
    39   22   37 1
    40   22   38 1
    41   22   39 1
@<TRIPOS>MOLECULE
ZINC15107251
   34    37     0     0     0
SMALL
USER_CHARGES
2-[[6-(2-thienyl)pyridazin-3-yl]sulfanylmethyl]imidazo[1,2-a]pyridine
@<TRIPOS>ATOM
      1 C1         -1.2403    1.7584    0.0175 C.2       1 <0>        -0.0991
      2 C2         -0.0126    1.0758    0.0080 C.2       1 <0>        -0.1380
      3 C3          1.1486    1.7634    0.0006 C.2       1 <0>         0.0544
      4 N1          1.1482    3.1282    0.0074 N.pl3     1 <0>        -0.3615
      5 C4          2.1557    4.0542    0.0023 C.2       1 <0>        -0.0705
      6 C5          1.5760    5.2745    0.0141 C.2       1 <0>         0.0639
      7 N2          0.2503    5.1168    0.0262 N.2       1 <0>        -0.4768
      8 C6         -0.0339    3.8221    0.0225 C.2       1 <0>         0.2285
      9 C7         -1.2550    3.1185    0.0308 C.2       1 <0>        -0.0784
     10 C8          2.3045    6.5938    0.0137 C.3       1 <0>        -0.0203
     11 S1          2.6128    7.1149    1.7236 S.3       1 <0>        -0.0174
     12 C9          3.4590    8.6511    1.5551 C.ar      1 <0>         0.0507
     13 C10         3.8565    9.3584    2.6923 C.ar      1 <0>        -0.0890
     14 C11         4.5169   10.5482    2.5165 C.ar      1 <0>        -0.0913
     15 C12         4.7445   10.9888    1.2055 C.ar      1 <0>         0.1496
     16 N3          4.3271   10.2543    0.1809 N.ar      1 <0>        -0.2147
     17 N4          3.7138    9.1390    0.3494 N.ar      1 <0>        -0.2420
     18 C13         5.4467   12.2658    0.9644 C.2       1 <0>        -0.1272
     19 C14         5.7638   12.8651   -0.2258 C.2       1 <0>        -0.1036
     20 C15         6.4289   14.0710   -0.2032 C.2       1 <0>        -0.1628
     21 C16         6.7492   14.6277    0.9933 C.2       1 <0>        -0.1556
     22 S2          6.0960   13.4336    2.1485 S.3       1 <0>         0.0739
     23 H1         -2.1682    1.2058    0.0189 H         1 <0>         0.1455
     24 H2          0.0021   -0.0041    0.0020 H         1 <0>         0.1536
     25 H3          2.0869    1.2287   -0.0113 H         1 <0>         0.1655
     26 H4          3.2158    3.8481   -0.0091 H         1 <0>         0.1876
     27 H5         -2.1929    3.6538    0.0422 H         1 <0>         0.1533
     28 H6          3.2543    6.4842   -0.5096 H         1 <0>         0.1124
     29 H7          1.6962    7.3445   -0.4909 H         1 <0>         0.1141
     30 H8          3.6530    8.9775    3.6822 H         1 <0>         0.1600
     31 H9          4.8481   11.1303    3.3638 H         1 <0>         0.1556
     32 H10         5.4971   12.4012   -1.1639 H         1 <0>         0.1451
     33 H11         6.6926   14.5673   -1.1254 H         1 <0>         0.1418
     34 H12         7.2630   15.5561    1.1943 H         1 <0>         0.1926
@<TRIPOS>BOND
     1    1    9 2
     2    1    2 1
     3    1   23 1
     4    2    3 2
     5    2   24 1
     6    3    4 1
     7    3   25 1
     8    4    8 1
     9    4    5 1
    10    5    6 2
    11    5   26 1
    12    6    7 1
    13    6   10 1
    14    7    8 2
    15    8    9 1
    16    9   27 1
    17   10   11 1
    18   10   28 1
    19   10   29 1
    20   11   12 1
    21   12   17 ar
    22   12   13 ar
    23   13   14 ar
    24   13   30 1
    25   14   15 ar
    26   14   31 1
    27   15   16 ar
    28   15   18 1
    29   16   17 ar
    30   18   22 1
    31   18   19 2
    32   19   20 1
    33   19   32 1
    34   20   21 2
    35   20   33 1
    36   21   22 1
    37   21   34 1
@<TRIPOS>MOLECULE
ZINC36140831
   46    48     0     0     0
SMALL
USER_CHARGES

@<TRIPOS>ATOM
      1 C1          0.2307   -0.2085    0.9647 C.3       1 <0>        -0.1835
      2 C2         -0.1172   -1.3574    0.0161 C.3       1 <0>         0.0683
      3 N1          0.5763   -1.1641   -1.2599 N.am      1 <0>        -0.5443
      4 C3          1.9669   -1.2959   -1.3269 C.ar      1 <0>         0.1563
      5 C4          2.6737   -1.7805   -0.2336 C.ar      1 <0>        -0.1649
      6 C5          4.0467   -1.9098   -0.3032 C.ar      1 <0>        -0.0936
      7 C6          4.7183   -1.5570   -1.4596 C.ar      1 <0>        -0.1459
      8 C7          4.0179   -1.0739   -2.5494 C.ar      1 <0>        -0.0642
      9 C8          2.6437   -0.9479   -2.4885 C.ar      1 <0>        -0.1630
     10 C9          4.7539   -0.6902   -3.8072 C.3       1 <0>        -0.1142
     11 C10        -0.1260   -0.8594   -2.3691 C.2       1 <0>         0.5636
     12 O1          0.4385   -0.7789   -3.4431 O.2       1 <0>        -0.5112
     13 C11        -1.5800   -0.6235   -2.2803 C.ar      1 <0>        -0.1672
     14 C12        -2.1365   -0.1156   -1.1031 C.ar      1 <0>        -0.0754
     15 C13        -3.4932    0.1038   -1.0238 C.ar      1 <0>        -0.1675
     16 C14        -4.3102   -0.1795   -2.1138 C.ar      1 <0>         0.1964
     17 C15        -3.7595   -0.6852   -3.2872 C.ar      1 <0>        -0.1668
     18 C16        -2.4029   -0.9019   -3.3751 C.ar      1 <0>        -0.0264
     19 N2         -5.6842    0.0435   -2.0299 N.am      1 <0>        -0.5605
     20 C17        -6.6500   -0.3387   -3.0668 C.3       1 <0>         0.0912
     21 C18        -8.0312   -0.3052   -2.3759 C.3       1 <0>        -0.1317
     22 C19        -7.7861    0.7036   -1.2299 C.3       1 <0>        -0.1539
     23 C20        -6.2948    0.6309   -0.9864 C.2       1 <0>         0.5165
     24 O2         -5.7319    1.0448    0.0048 O.2       1 <0>        -0.5031
     25 H1          1.3072   -0.1913    1.1352 H         1 <0>         0.0725
     26 H2         -0.0819    0.7367    0.5207 H         1 <0>         0.0659
     27 H3         -0.2853   -0.3522    1.9140 H         1 <0>         0.0791
     28 H4          0.1954   -2.3025    0.4600 H         1 <0>         0.0837
     29 H5         -1.1937   -1.3745   -0.1544 H         1 <0>         0.1154
     30 H6          2.1499   -2.0555    0.6700 H         1 <0>         0.1250
     31 H7          4.5968   -2.2866    0.5465 H         1 <0>         0.1246
     32 H8          5.7923   -1.6588   -1.5113 H         1 <0>         0.1204
     33 H9          2.0967   -0.5747   -3.3416 H         1 <0>         0.1751
     34 H10         4.8234   -1.5559   -4.4659 H         1 <0>         0.0713
     35 H11         4.2143    0.1097   -4.3142 H         1 <0>         0.0673
     36 H12         5.7563   -0.3469   -3.5513 H         1 <0>         0.0662
     37 H13        -1.5029    0.1041   -0.2566 H         1 <0>         0.1530
     38 H14        -3.9240    0.4958   -0.1144 H         1 <0>         0.1628
     39 H15        -4.3965   -0.9040   -4.1315 H         1 <0>         0.1351
     40 H16        -1.9754   -1.2902   -4.2878 H         1 <0>         0.1401
     41 H17        -6.6224    0.3756   -3.8897 H         1 <0>         0.0858
     42 H18        -6.4347   -1.3432   -3.4310 H         1 <0>         0.0908
     43 H19        -8.7998    0.0585   -3.0579 H         1 <0>         0.0997
     44 H20        -8.2942   -1.2868   -1.9819 H         1 <0>         0.0881
     45 H21        -8.0779    1.7079   -1.5368 H         1 <0>         0.1128
     46 H22        -8.3311    0.4038   -0.3347 H         1 <0>         0.1105
@<TRIPOS>BOND
     1    1    2 1
     2    1   25 1
     3    1   26 1
     4    1   27 1
     5    2    3 1
     6    2   28 1
     7    2   29 1
     8    3    4 1
     9    3   11 am
    10    4    9 ar
    11    4    5 ar
    12    5    6 ar
    13    5   30 1
    14    6    7 ar
    15    6   31 1
    16    7    8 ar
    17    7   32 1
    18    8    9 ar
    19    8   10 1
    20    9   33 1
    21   10   34 1
    22   10   35 1
    23   10   36 1
    24   11   12 2
    25   11   13 1
    26   13   18 ar
    27   13   14 ar
    28   14   15 ar
    29   14   37 1
    30   15   16 ar
    31   15   38 1
    32   16   17 ar
    33   16   19 1
    34   17   18 ar
    35   17   39 1
    36   18   40 1
    37   19   23 am
    38   19   20 1
    39   20   21 1
    40   20   41 1
    41   20   42 1
    42   21   22 1
    43   21   43 1
    44   21   44 1
    45   22   23 1
    46   22   45 1
    47   22   46 1
    48   23   24 2
@<TRIPOS>MOLECULE
ZINC49912437
   47    48     0     0     0
SMALL
USER_CHARGES

@<TRIPOS>ATOM
      1 C1         -0.6029    1.2912   -0.0017 C.3       1 <0>        -0.1064
      2 C2         -0.4214   -0.2048    0.0041 C.ar      1 <0>        -0.1290
      3 C3         -0.3687   -0.8964   -1.1849 C.ar      1 <0>        -0.0202
      4 C4         -0.1994   -2.2865   -1.1734 C.ar      1 <0>        -0.2010
      5 C5         -0.0848   -2.9630    0.0473 C.ar      1 <0>        -0.0381
      6 C6         -0.1383   -2.2674    1.2215 C.ar      1 <0>        -0.2163
      7 C7         -0.3012   -0.8861    1.2106 C.ar      1 <0>         0.1597
      8 O1         -0.3482   -0.2018    2.3810 O.3       1 <0>        -0.3083
      9 C8         -0.2185   -0.9631    3.5833 C.3       1 <0>         0.0234
     10 C9         -0.1427   -3.0323   -2.4373 C.2       1 <0>         0.3978
     11 O2         -0.2426   -2.4442   -3.4935 O.2       1 <0>        -0.4378
     12 C10         0.0396   -4.5281   -2.4220 C.3       1 <0>         0.0932
     13 H1          0.7487   -4.8070   -1.6426 H         1 <0>         0.1007
     14 C11        -1.3167   -5.2196   -2.1694 C.3       1 <0>        -0.1204
     15 C12        -1.7892   -5.5910   -3.5999 C.3       1 <0>        -0.1362
     16 C13        -0.4472   -5.9432   -4.2890 C.3       1 <0>         0.0900
     17 N1          0.5294   -4.9855   -3.7306 N.am      1 <0>        -0.6058
     18 C14         1.6761   -4.5941   -4.3207 C.2       1 <0>         0.5440
     19 O3          2.3644   -3.7407   -3.8022 O.2       1 <0>        -0.5291
     20 C15         2.1031   -5.2168   -5.6250 C.3       1 <0>        -0.0794
     21 C16         3.5344   -4.7858   -5.9514 C.3       1 <0>        -0.1284
     22 C17         2.0441   -6.7410   -5.5058 C.3       1 <0>        -0.1558
     23 C18         1.1644   -4.7558   -6.7417 C.3       1 <0>        -0.1457
     24 H2          0.3730    1.7755   -0.0348 H         1 <0>         0.0709
     25 H3         -1.1834    1.5834   -0.8767 H         1 <0>         0.0680
     26 H4         -1.1296    1.5968    0.9024 H         1 <0>         0.0724
     27 H5         -0.4581   -0.3690   -2.1231 H         1 <0>         0.1398
     28 H6          0.0455   -4.0351    0.0604 H         1 <0>         0.1320
     29 H7         -0.0501   -2.7913    2.1618 H         1 <0>         0.1359
     30 H8         -1.0248   -1.6944    3.6391 H         1 <0>         0.0589
     31 H9          0.7413   -1.4797    3.5845 H         1 <0>         0.0590
     32 H10        -0.2730   -0.2959    4.4435 H         1 <0>         0.1041
     33 H11        -1.1859   -6.1150   -1.5619 H         1 <0>         0.0918
     34 H12        -2.0185   -4.5315   -1.6980 H         1 <0>         0.0884
     35 H13        -2.4560   -6.4530   -3.5796 H         1 <0>         0.0923
     36 H14        -2.2670   -4.7407   -4.0866 H         1 <0>         0.0801
     37 H15        -0.1542   -6.9652   -4.0487 H         1 <0>         0.0788
     38 H16        -0.5299   -5.8152   -5.3683 H         1 <0>         0.0902
     39 H17         4.2032   -5.1143   -5.1559 H         1 <0>         0.0598
     40 H18         3.8432   -5.2362   -6.8948 H         1 <0>         0.0638
     41 H19         3.5764   -3.6999   -6.0363 H         1 <0>         0.0645
     42 H20         1.0244   -7.0481   -5.2732 H         1 <0>         0.0712
     43 H21         2.3529   -7.1914   -6.4491 H         1 <0>         0.0691
     44 H22         2.7128   -7.0695   -4.7102 H         1 <0>         0.0596
     45 H23         1.3012   -3.6882   -6.9138 H         1 <0>         0.0636
     46 H24         1.3915   -5.3033   -7.6564 H         1 <0>         0.0703
     47 H25         0.1316   -4.9475   -6.4505 H         1 <0>         0.0648
@<TRIPOS>BOND
     1    1    2 1
     2    1   24 1
     3    1   25 1
     4    1   26 1
     5    2    7 ar
     6    2    3 ar
     7    3    4 ar
     8    3   27 1
     9    4    5 ar
    10    4   10 1
    11    5    6 ar
    12    5   28 1
    13    6    7 ar
    14    6   29 1
    15    7    8 1
    16    8    9 1
    17    9   30 1
    18    9   31 1
    19    9   32 1
    20   10   11 2
    21   10   12 1
    22   12   13 1
    23   12   17 1
    24   12   14 1
    25   14   15 1
    26   14   33 1
    27   14   34 1
    28   15   16 1
    29   15   35 1
    30   15   36 1
    31   16   17 1
    32   16   37 1
    33   16   38 1
    34   17   18 am
    35   18   19 2
    36   18   20 1
    37   20   21 1
    38   20   22 1
    39   20   23 1
    40   21   39 1
    41   21   40 1
    42   21   41 1
    43   22   42 1
    44   22   43 1
    45   22   44 1
    46   23   45 1
    47   23   46 1
    48   23   47 1
@<TRIPOS>MOLECULE
ZINC17820562
   31    32     0     0     0
SMALL
USER_CHARGES

@<TRIPOS>ATOM
      1 C1         -0.9212    1.3463    0.0088 C.3       1 <0>         0.0748
      2 N1         -0.5402   -0.0683    0.0014 N.pl3     1 <0>        -0.5697
      3 C2         -0.3484   -0.7818    1.2664 C.3       1 <0>         0.0775
      4 C3         -0.3642   -0.7200   -1.1815 C.2       1 <0>         0.4486
      5 N2         -0.5353   -0.0831   -2.3107 N.2       1 <0>        -0.5600
      6 C4         -0.3599   -0.7325   -3.4895 C.2       1 <0>         0.3469
      7 N3         -0.0234   -2.0043   -3.7092 N.2       1 <0>        -0.5944
      8 C5          0.1047   -2.4767   -4.9163 C.2       1 <0>         0.1793
      9 C6         -0.1152   -1.6332   -6.0020 C.2       1 <0>        -0.3345
     10 S1         -0.5266   -0.1111   -5.1575 S.3       1 <0>         0.0901
     11 C7         -0.0393   -1.9063   -7.3912 C.2       1 <0>         0.4812
     12 O1          0.1316   -3.0484   -7.7789 O.2       1 <0>        -0.4283
     13 C8         -0.1676   -0.8053   -8.3689 C.ar      1 <0>        -0.1465
     14 C9         -0.1766    0.5217   -7.9336 C.ar      1 <0>        -0.0535
     15 C10        -0.2960    1.5443   -8.8501 C.ar      1 <0>        -0.1113
     16 C11        -0.4071    1.2587  -10.2016 C.ar      1 <0>         0.0020
     17 C12        -0.3994   -0.0541  -10.6407 C.ar      1 <0>        -0.1132
     18 C13        -0.2746   -1.0875   -9.7334 C.ar      1 <0>         0.0246
     19 Cl1        -0.2579   -2.7332  -10.2856 Cl        1 <0>        -0.0171
     20 Cl2        -0.5571    2.5529  -11.3489 Cl        1 <0>        -0.0446
     21 H1         -0.0234    1.9644    0.0110 H         1 <0>         0.0657
     22 H2         -1.5127    1.5679   -0.8796 H         1 <0>         0.0900
     23 H3         -1.5110    1.5591    0.9004 H         1 <0>         0.0760
     24 H4         -1.2932   -1.2261    1.5798 H         1 <0>         0.0705
     25 H5          0.3953   -1.5672    1.1315 H         1 <0>         0.0815
     26 H6         -0.0048   -0.0831    2.0292 H         1 <0>         0.0862
     27 H7         -0.0833   -1.7628   -1.1869 H         1 <0>         0.1533
     28 H8          0.3783   -3.5096   -5.0731 H         1 <0>         0.1771
     29 H9         -0.0904    0.7463   -6.8807 H         1 <0>         0.1447
     30 H10        -0.3034    2.5707   -8.5141 H         1 <0>         0.1500
     31 H11        -0.4871   -0.2703  -11.6952 H         1 <0>         0.1533
@<TRIPOS>BOND
     1    1    2 1
     2    1   21 1
     3    1   22 1
     4    1   23 1
     5    2    3 1
     6    2    4 1
     7    3   24 1
     8    3   25 1
     9    3   26 1
    10    4    5 2
    11    4   27 1
    12    5    6 1
    13    6   10 1
    14    6    7 2
    15    7    8 1
    16    8    9 2
    17    8   28 1
    18    9   10 1
    19    9   11 1
    20   11   12 2
    21   11   13 1
    22   13   18 ar
    23   13   14 ar
    24   14   15 ar
    25   14   29 1
    26   15   16 ar
    27   15   30 1
    28   16   17 ar
    29   16   20 1
    30   17   18 ar
    31   17   31 1
    32   18   19 1
@<TRIPOS>MOLECULE
ZINC04293105
   69    72     0     0     0
SMALL
USER_CHARGES
17-(3-carboxy-1-methyl-propyl)-10,13-dimethyl-2,3,4,5,6,7,8,9,11,12,14,15,16,17-tetradecahydro-1H-cyclopenta[a]phenanthrene-3,7-dicarboxylic acid
@<TRIPOS>ATOM
      1 C1          6.4412    2.1412   -8.5826 C.3       1 <0>        -0.1445
      2 C2          5.3888    1.4969   -7.6781 C.3       1 <0>        -0.0904
      3 H1          4.4699    1.3413   -8.2435 H         1 <0>         0.0737
      4 C3          5.9086    0.1508   -7.1694 C.3       1 <0>        -0.0982
      5 C4          6.0970   -0.8027   -8.3510 C.3       1 <0>        -0.1560
      6 C5          6.6090   -2.1285   -7.8499 C.2       1 <0>         0.4591
      7 O1          6.8034   -2.2938   -6.6688 O.co2     1 <0>        -0.6387
      8 C6          5.1067    2.4156   -6.4906 C.3       1 <0>        -0.0777
      9 H2          5.9873    2.5284   -5.8697 H         1 <0>         0.0635
     10 C7          4.5888    3.7873   -6.9799 C.3       1 <0>        -0.1195
     11 C8          3.2518    4.0392   -6.2274 C.3       1 <0>        -0.1063
     12 C9          3.3519    3.1061   -5.0252 C.3       1 <0>        -0.0489
     13 H3          4.1706    3.5405   -4.3992 H         1 <0>         0.0400
     14 C10         3.9433    1.8340   -5.6517 C.3       1 <0>        -0.0486
     15 C11         4.4197    0.8354   -4.6216 C.3       1 <0>        -0.1032
     16 C12         3.6479    1.0167   -3.3065 C.3       1 <0>        -0.1077
     17 C13         2.2088    1.4272   -3.6348 C.3       1 <0>        -0.0742
     18 H4          1.8460    0.8081   -4.4552 H         1 <0>         0.0705
     19 C14         2.2113    2.8940   -4.0949 C.3       1 <0>        -0.0334
     20 H5          2.3961    3.5149   -3.1895 H         1 <0>         0.0590
     21 C15         0.8007    3.1858   -4.5822 C.3       1 <0>        -0.1084
     22 H6          0.4623    2.4290   -5.2897 H         1 <0>         0.0593
     23 C16        -0.1137    3.1749   -3.3569 C.3       1 <0>        -0.0957
     24 C17        -0.0052    1.9561   -2.4589 C.3       1 <0>        -0.0585
     25 H7         -0.7498    1.2724   -2.8595 H         1 <0>         0.0430
     26 C18         1.2629    1.1792   -2.4777 C.3       1 <0>        -0.0276
     27 C19         2.0151    0.9143   -1.1930 C.3       1 <0>        -0.1074
     28 C20         1.5005    1.6790    0.0157 C.3       1 <0>        -0.0939
     29 C21        -0.0275    1.5279    0.0457 C.3       1 <0>        -0.1207
     30 H8         -0.2979    0.4822   -0.0797 H         1 <0>         0.0645
     31 C22        -0.5733    2.3593   -1.1051 C.3       1 <0>        -0.0854
     32 C23        -0.5629    2.0565    1.3542 C.2       1 <0>         0.4681
     33 O2         -1.3363    2.9848    1.3596 O.co2     1 <0>        -0.6443
     34 C24         0.7521   -0.2281   -2.8187 C.3       1 <0>        -0.1523
     35 C25         0.6632    4.5616   -5.1916 C.2       1 <0>         0.4818
     36 O3          1.2884    5.4895   -4.7355 O.co2     1 <0>        -0.6412
     37 C26         2.9709    1.1810   -6.6411 C.3       1 <0>        -0.1430
     38 H9          7.3601    2.2967   -8.0173 H         1 <0>         0.0453
     39 H10         6.6425    1.4857   -9.4299 H         1 <0>         0.0499
     40 H11         6.0708    3.1001   -8.9451 H         1 <0>         0.0473
     41 H12         6.8637    0.2974   -6.6649 H         1 <0>         0.0518
     42 H13         5.1897   -0.2753   -6.4696 H         1 <0>         0.0759
     43 H14         5.1419   -0.9492   -8.8554 H         1 <0>         0.0581
     44 H15         6.8159   -0.3765   -9.0507 H         1 <0>         0.0582
     45 H16         5.3049    4.5720   -6.7436 H         1 <0>         0.0490
     46 H17         4.4076    3.7527   -8.0553 H         1 <0>         0.0552
     47 H18         3.1949    5.0799   -5.9059 H         1 <0>         0.0737
     48 H19         2.4136    3.7739   -6.8708 H         1 <0>         0.0670
     49 H20         5.4908    0.9714   -4.4324 H         1 <0>         0.0560
     50 H21         4.2659   -0.1842   -4.9974 H         1 <0>         0.0651
     51 H22         4.1231    1.7953   -2.7082 H         1 <0>         0.0584
     52 H23         3.6429    0.0758   -2.7539 H         1 <0>         0.0596
     53 H24        -1.1425    3.2642   -3.7025 H         1 <0>         0.0475
     54 H25         0.1205    4.0591   -2.7627 H         1 <0>         0.0539
     55 H26         3.0585    1.2025   -1.3251 H         1 <0>         0.0629
     56 H27         1.9781   -0.1531   -0.9740 H         1 <0>         0.0547
     57 H28         1.7669    2.7324   -0.0717 H         1 <0>         0.0520
     58 H29         1.9409    1.2681    0.9223 H         1 <0>         0.0607
     59 H30        -1.6551    2.2515   -1.1298 H         1 <0>         0.0483
     60 H31        -0.3301    3.4067   -0.9229 H         1 <0>         0.0579
     61 H32         0.1164   -0.5896   -2.0105 H         1 <0>         0.0454
     62 H33         0.1776   -0.1917   -3.7443 H         1 <0>         0.0445
     63 H34         1.5998   -0.9019   -2.9434 H         1 <0>         0.0463
     64 H35         2.0465    0.9221   -6.1247 H         1 <0>         0.0530
     65 H36         2.7523    1.8784   -7.4497 H         1 <0>         0.0539
     66 H37         3.4225    0.2781   -7.0521 H         1 <0>         0.0563
     67 O4          6.8493   -3.1258   -8.7156 O.co2     1 <0>        -0.7917
     68 O5         -0.1798    1.4954    2.5118 O.co2     1 <0>        -0.7849
     69 O6         -0.1535    4.7529   -6.2395 O.co2     1 <0>        -0.7882
@<TRIPOS>BOND
     1    1    2 1
     2    1   38 1
     3    1   39 1
     4    1   40 1
     5    2    3 1
     6    2    4 1
     7    2    8 1
     8    4    5 1
     9    4   41 1
    10    4   42 1
    11    5    6 1
    12    5   43 1
    13    5   44 1
    14    6    7 2
    15    6   67 1
    16    8    9 1
    17    8   14 1
    18    8   10 1
    19   10   11 1
    20   10   45 1
    21   10   46 1
    22   11   12 1
    23   11   47 1
    24   11   48 1
    25   12   13 1
    26   12   19 1
    27   12   14 1
    28   14   15 1
    29   14   37 1
    30   15   16 1
    31   15   49 1
    32   15   50 1
    33   16   17 1
    34   16   51 1
    35   16   52 1
    36   17   18 1
    37   17   26 1
    38   17   19 1
    39   19   20 1
    40   19   21 1
    41   21   22 1
    42   21   23 1
    43   21   35 1
    44   23   24 1
    45   23   53 1
    46   23   54 1
    47   24   25 1
    48   24   31 1
    49   24   26 1
    50   26   27 1
    51   26   34 1
    52   27   28 1
    53   27   55 1
    54   27   56 1
    55   28   29 1
    56   28   57 1
    57   28   58 1
    58   29   30 1
    59   29   31 1
    60   29   32 1
    61   31   59 1
    62   31   60 1
    63   32   33 2
    64   32   68 1
    65   34   61 1
    66   34   62 1
    67   34   63 1
    68   35   36 2
    69   35   69 1
    70   37   64 1
    71   37   65 1
    72   37   66 1
@<TRIPOS>MOLECULE
ZINC12475576
   57    60     0     0     0
SMALL
USER_CHARGES

@<TRIPOS>ATOM
      1 C1         -0.2939    2.4277   -0.4870 C.3       1 <0>        -0.1461
      2 C2          0.1862    0.9786   -0.3849 C.3       1 <0>        -0.0764
      3 C3          1.0691    0.6577   -1.5633 C.ar      1 <0>        -0.1013
      4 C4          0.5133    0.1546   -2.7252 C.ar      1 <0>        -0.1124
      5 C5          1.3200   -0.1408   -3.8067 C.ar      1 <0>        -0.0962
      6 C6          2.6902    0.0683   -3.7265 C.ar      1 <0>         0.1650
      7 C7          3.2453    0.5739   -2.5587 C.ar      1 <0>        -0.1034
      8 C8          2.4327    0.8723   -1.4823 C.ar      1 <0>        -0.1119
      9 N1          3.5113   -0.2309   -4.8218 N.am      1 <0>        -0.5543
     10 C9          4.3681   -1.2718   -4.7448 C.2       1 <0>         0.5701
     11 O1          4.4391   -1.9545   -3.7398 O.2       1 <0>        -0.5386
     12 C10         5.2144   -1.5540   -5.9189 C.2       1 <0>        -0.3041
     13 C11         6.1220   -2.6061   -5.9235 C.2       1 <0>         0.1426
     14 C12         6.7672   -2.9775   -7.1247 C.2       1 <0>        -0.2043
     15 C13         6.1486   -3.1452   -8.4488 C.2       1 <0>        -0.0617
     16 C14         7.1356   -3.5018   -9.2859 C.2       1 <0>        -0.0132
     17 N2          8.3135   -3.5694   -8.5929 N.pl3     1 <0>        -0.3682
     18 C15         8.1170   -3.2537   -7.2997 C.2       1 <0>         0.0942
     19 C16         9.1756   -3.2107   -6.2281 C.3       1 <0>        -0.0897
     20 C17         9.5518   -3.9134   -9.1526 C.ar      1 <0>         0.0588
     21 C18        10.1895   -5.0795   -8.7567 C.ar      1 <0>        -0.0732
     22 C19        11.4241   -5.4262   -9.3122 C.ar      1 <0>        -0.1538
     23 C20        12.0145   -4.5980  -10.2661 C.ar      1 <0>        -0.0356
     24 C21        11.3698   -3.4265  -10.6616 C.ar      1 <0>        -0.1517
     25 C22        10.1331   -3.0897  -10.1047 C.ar      1 <0>        -0.0679
     26 C23        11.9901   -2.5464  -11.6707 C.2       1 <0>         0.5287
     27 O2         13.0703   -2.8441  -12.1606 O.co2     1 <0>        -0.6921
     28 O3         11.4240   -1.5193  -12.0170 O.co2     1 <0>        -0.6943
     29 C24        12.1022   -6.6668   -8.8896 C.2       1 <0>         0.5304
     30 O4         11.5839   -7.3924   -8.0527 O.co2     1 <0>        -0.6994
     31 O5         13.1825   -6.9694   -9.3762 O.co2     1 <0>        -0.6905
     32 C25         6.9719   -3.7838  -10.7572 C.3       1 <0>        -0.0738
     33 C26         5.0544   -0.6730   -7.0842 C.2       1 <0>         0.4961
     34 O6          5.7905   -0.8631   -8.1996 O.3       1 <0>        -0.5943
     35 N3          4.1723    0.3102   -7.0153 N.2       1 <0>        -0.6753
     36 C27         3.4294    0.5177   -5.9314 C.2       1 <0>         0.6667
     37 O7          2.6347    1.4411   -5.9459 O.2       1 <0>        -0.5909
     38 H1          0.5669    3.0964   -0.4887 H         1 <0>         0.0556
     39 H2         -0.8581    2.5594   -1.4103 H         1 <0>         0.0560
     40 H3         -0.9325    2.6598    0.3653 H         1 <0>         0.0501
     41 H4          0.7503    0.8469    0.5383 H         1 <0>         0.0664
     42 H5         -0.6747    0.3099   -0.3832 H         1 <0>         0.0663
     43 H6         -0.5527   -0.0078   -2.7870 H         1 <0>         0.1186
     44 H7          0.8854   -0.5344   -4.7137 H         1 <0>         0.1209
     45 H8          4.3108    0.7376   -2.4933 H         1 <0>         0.1197
     46 H9          2.8634    1.2698   -0.5752 H         1 <0>         0.1187
     47 H10         6.3345   -3.1399   -5.0090 H         1 <0>         0.1213
     48 H11         5.1066   -3.0090   -8.6980 H         1 <0>         0.1322
     49 H12         9.2562   -4.1905   -5.7574 H         1 <0>         0.0759
     50 H13        10.1333   -2.9420   -6.6740 H         1 <0>         0.0707
     51 H14         8.9032   -2.4685   -5.4777 H         1 <0>         0.0741
     52 H15         9.7315   -5.7205   -8.0179 H         1 <0>         0.1230
     53 H16        12.9687   -4.8629  -10.6970 H         1 <0>         0.1342
     54 H17         9.6312   -2.1846  -10.4136 H         1 <0>         0.1261
     55 H18         7.1126   -2.8621  -11.3217 H         1 <0>         0.0666
     56 H19         7.7132   -4.5188  -11.0709 H         1 <0>         0.0588
     57 H20         5.9715   -4.1746  -10.9432 H         1 <0>         0.0662
@<TRIPOS>BOND
     1    1    2 1
     2    1   38 1
     3    1   39 1
     4    1   40 1
     5    2    3 1
     6    2   41 1
     7    2   42 1
     8    3    8 ar
     9    3    4 ar
    10    4    5 ar
    11    4   43 1
    12    5    6 ar
    13    5   44 1
    14    6    7 ar
    15    6    9 1
    16    7    8 ar
    17    7   45 1
    18    8   46 1
    19    9   36 am
    20    9   10 am
    21   10   11 2
    22   10   12 1
    23   12   13 2
    24   12   33 1
    25   13   14 1
    26   13   47 1
    27   14   18 2
    28   14   15 1
    29   15   16 2
    30   15   48 1
    31   16   17 1
    32   16   32 1
    33   17   18 1
    34   17   20 1
    35   18   19 1
    36   19   49 1
    37   19   50 1
    38   19   51 1
    39   20   25 ar
    40   20   21 ar
    41   21   22 ar
    42   21   52 1
    43   22   23 ar
    44   22   29 1
    45   23   24 ar
    46   23   53 1
    47   24   25 ar
    48   24   26 1
    49   25   54 1
    50   26   27 2
    51   26   28 1
    52   29   30 2
    53   29   31 1
    54   32   55 1
    55   32   56 1
    56   32   57 1
    57   33   34 1
    58   33   35 2
    59   35   36 1
    60   36   37 2
@<TRIPOS>MOLECULE
ZINC13193591
   47    50     0     0     0
SMALL
USER_CHARGES

@<TRIPOS>ATOM
      1 C1          0.0954    1.7111    0.1783 C.ar      1 <0>        -0.1289
      2 C2          1.3087    2.3744    0.2368 C.ar      1 <0>        -0.1552
      3 C3          2.4897    1.6647    0.1792 C.ar      1 <0>        -0.0922
      4 C4          2.4593    0.2726    0.0620 C.ar      1 <0>        -0.1268
      5 C5          1.2309   -0.3901    0.0039 C.ar      1 <0>        -0.0264
      6 C6          0.0576    0.3328    0.0621 C.ar      1 <0>        -0.1173
      7 C7          1.1878   -1.8912   -0.1230 C.3       1 <0>         0.2430
      8 H1          2.0383   -2.2421   -0.7074 H         1 <0>         0.1284
      9 C8          1.2000   -2.5289    1.2467 C.2       1 <0>        -0.4377
     10 C9          0.0506   -3.2360    1.3584 C.2       1 <0>         0.2291
     11 C10        -0.7298   -3.0938    0.1119 C.2       1 <0>         0.5005
     12 O1         -1.8099   -3.6097   -0.0972 O.2       1 <0>        -0.5221
     13 N1         -0.0677   -2.3080   -0.7586 N.am      1 <0>        -0.5538
     14 C11        -0.4991   -1.9514   -2.0396 C.ar      1 <0>         0.1748
     15 C12         0.2927   -1.1323   -2.8369 C.ar      1 <0>        -0.1563
     16 C13        -0.1288   -0.7765   -4.1043 C.ar      1 <0>        -0.1179
     17 C14        -1.3385   -1.2317   -4.5877 C.ar      1 <0>        -0.1265
     18 C15        -2.1419   -2.0556   -3.7953 C.ar      1 <0>        -0.1205
     19 C16        -1.7134   -2.4191   -2.5170 C.ar      1 <0>        -0.1260
     20 C17        -3.4360   -2.5439   -4.3093 C.2       1 <0>         0.5264
     21 O2         -3.8071   -2.2275   -5.4308 O.co2     1 <0>        -0.7055
     22 O3         -4.1374   -3.2649   -3.6138 O.co2     1 <0>        -0.6855
     23 O4         -0.3233   -3.9586    2.4392 O.3       1 <0>        -0.6924
     24 C18         2.2529   -2.4063    2.2588 C.2       1 <0>         0.5337
     25 O5          2.3337   -1.3968    2.9333 O.2       1 <0>        -0.4681
     26 C19         3.2163   -3.5087    2.4602 C.ar      1 <0>        -0.0867
     27 C20         3.0604   -4.7123    1.7684 C.ar      1 <0>        -0.0299
     28 C21         3.9631   -5.7364    1.9606 C.ar      1 <0>        -0.1414
     29 C22         5.0228   -5.5751    2.8369 C.ar      1 <0>        -0.1100
     30 C23         5.1846   -4.3869    3.5258 C.ar      1 <0>        -0.1423
     31 C24         4.2913   -3.3501    3.3395 C.ar      1 <0>         0.0066
     32 Cl1         4.4992   -1.8566    4.1998 Cl        1 <0>        -0.0580
     33 C25         3.7186   -0.4936   -0.0007 C.2       1 <0>         0.5280
     34 O6          4.7897    0.0940   -0.0560 O.co2     1 <0>        -0.7044
     35 O7          3.6913   -1.7162    0.0026 O.co2     1 <0>        -0.6602
     36 H2         -0.8265    2.2716    0.2280 H         1 <0>         0.1024
     37 H3          1.3306    3.4503    0.3274 H         1 <0>         0.1008
     38 H4          3.4358    2.1837    0.2243 H         1 <0>         0.1145
     39 H5         -0.8928   -0.1781    0.0170 H         1 <0>         0.1070
     40 H6          1.2404   -0.7724   -2.4644 H         1 <0>         0.1186
     41 H7          0.4907   -0.1397   -4.7184 H         1 <0>         0.1086
     42 H8         -1.6644   -0.9507   -5.5783 H         1 <0>         0.1152
     43 H9         -2.3280   -3.0587   -1.9009 H         1 <0>         0.1558
     44 H10         2.2342   -4.8403    1.0847 H         1 <0>         0.1394
     45 H11         3.8430   -6.6674    1.4264 H         1 <0>         0.1205
     46 H12         5.7264   -6.3813    2.9834 H         1 <0>         0.1178
     47 H13         6.0136   -4.2680    4.2078 H         1 <0>         0.1207
@<TRIPOS>BOND
     1    1    6 ar
     2    1    2 ar
     3    1   36 1
     4    2    3 ar
     5    2   37 1
     6    3    4 ar
     7    3   38 1
     8    4    5 ar
     9    4   33 1
    10    5    6 ar
    11    5    7 1
    12    6   39 1
    13    7    8 1
    14    7   13 1
    15    7    9 1
    16    9   10 2
    17    9   24 1
    18   10   11 1
    19   10   23 1
    20   11   12 2
    21   11   13 am
    22   13   14 1
    23   14   19 ar
    24   14   15 ar
    25   15   16 ar
    26   15   40 1
    27   16   17 ar
    28   16   41 1
    29   17   18 ar
    30   17   42 1
    31   18   19 ar
    32   18   20 1
    33   19   43 1
    34   20   21 2
    35   20   22 1
    36   24   25 2
    37   24   26 1
    38   26   31 ar
    39   26   27 ar
    40   27   28 ar
    41   27   44 1
    42   28   29 ar
    43   28   45 1
    44   29   30 ar
    45   29   46 1
    46   30   31 ar
    47   30   47 1
    48   31   32 1
    49   33   34 2
    50   33   35 1
@<TRIPOS>MOLECULE
ZINC03994214
   50    51     0     0     0
SMALL
USER_CHARGES

@<TRIPOS>ATOM
      1 C1         -2.1827    1.0887   -1.6020 C.3       1 <0>         0.0408
      2 O1         -1.3658    0.0640   -1.0322 O.3       1 <0>        -0.2805
      3 C2         -0.5328   -0.6017   -1.8755 C.ar      1 <0>         0.1038
      4 C3         -0.4241   -0.2000   -3.2005 C.ar      1 <0>        -0.2395
      5 C4          0.4184   -0.8688   -4.0622 C.ar      1 <0>        -0.0936
      6 C5          1.1679   -1.9563   -3.6039 C.ar      1 <0>        -0.1568
      7 C6          1.0588   -2.3624   -2.2668 C.ar      1 <0>         0.2087
      8 C7          0.2118   -1.6787   -1.4069 C.ar      1 <0>         0.1261
      9 O2          0.1058   -2.0649   -0.1061 O.3       1 <0>        -0.6177
     10 P1         -1.0400   -3.1643    0.1594 P.3       1 <0>         2.1117
     11 O3         -2.4103   -2.6316   -0.3816 O.2       1 <0>        -1.1825
     12 O4         -0.6684   -4.4948   -0.5798 O.3       1 <0>        -1.1669
     13 O5         -1.1561   -3.4366    1.6978 O.3       1 <0>        -1.1797
     14 O6          1.7837   -3.4190   -1.8134 O.3       1 <0>        -0.6219
     15 P2          3.2296   -3.0187   -1.2293 P.3       1 <0>         2.0998
     16 O7          4.0262   -2.2147   -2.3126 O.2       1 <0>        -1.1625
     17 O8          3.0490   -2.1331    0.0504 O.3       1 <0>        -1.1578
     18 O9          4.0207   -4.3187   -0.8572 O.3       1 <0>        -1.1761
     19 C8          2.0683   -2.6729   -4.5227 C.2       1 <0>         0.0258
     20 C9          2.8160   -1.9858   -5.4023 C.2       1 <0>        -0.1933
     21 C10         2.8828   -0.5161   -5.3228 C.ar      1 <0>         0.0670
     22 C11         2.9582    0.1152   -4.0783 C.ar      1 <0>        -0.1730
     23 C12         3.0212    1.4952   -4.0072 C.ar      1 <0>         0.1448
     24 C13         3.0096    2.2547   -5.1729 C.ar      1 <0>        -0.0059
     25 C14         2.9346    1.6294   -6.4135 C.ar      1 <0>         0.1156
     26 C15         2.8767    0.2495   -6.4919 C.ar      1 <0>        -0.2510
     27 O10         2.9231    2.3754   -7.5506 O.3       1 <0>        -0.3172
     28 C16         2.8446    1.6681   -8.7898 C.3       1 <0>         0.0324
     29 O11         3.0712    3.6119   -5.0994 O.3       1 <0>        -0.3138
     30 C17         4.3717    4.2039   -5.1130 C.3       1 <0>         0.0365
     31 O12         3.0941    2.1103   -2.7964 O.3       1 <0>        -0.3205
     32 C18         3.2218    1.2694   -1.6481 C.3       1 <0>         0.0270
     33 H1         -1.5490    1.8945   -1.9725 H         1 <0>         0.0318
     34 H2         -2.7629    0.6744   -2.4265 H         1 <0>         0.0410
     35 H3         -2.8593    1.4789   -0.8416 H         1 <0>         0.0758
     36 H4         -1.0023    0.6396   -3.5571 H         1 <0>         0.1086
     37 H5          0.4992   -0.5530   -5.0918 H         1 <0>         0.1073
     38 H6          2.1276   -3.7508   -4.4894 H         1 <0>         0.1152
     39 H7          3.3682   -2.5109   -6.1677 H         1 <0>         0.1094
     40 H8          2.9669   -0.4738   -3.1730 H         1 <0>         0.1954
     41 H9          2.8226   -0.2355   -7.4554 H         1 <0>         0.1197
     42 H10         3.7036    1.0038   -8.8840 H         1 <0>         0.0480
     43 H11         1.9267    1.0808   -8.8155 H         1 <0>         0.0513
     44 H12         2.8436    2.3801   -9.6151 H         1 <0>         0.0823
     45 H13         4.9463    3.8382   -4.2620 H         1 <0>         0.0407
     46 H14         4.8828    3.9372   -6.0381 H         1 <0>         0.0314
     47 H15         4.2781    5.2880   -5.0492 H         1 <0>         0.0729
     48 H16         2.4006    0.5529   -1.6294 H         1 <0>         0.0749
     49 H17         4.1702    0.7340   -1.6935 H         1 <0>         0.0742
     50 H18         3.1920    1.8798   -0.7456 H         1 <0>         0.0901
@<TRIPOS>BOND
     1    1    2 1
     2    1   33 1
     3    1   34 1
     4    1   35 1
     5    2    3 1
     6    3    8 ar
     7    3    4 ar
     8    4    5 ar
     9    4   36 1
    10    5    6 ar
    11    5   37 1
    12    6    7 ar
    13    6   19 1
    14    7    8 ar
    15    7   14 1
    16    8    9 1
    17    9   10 1
    18   10   11 2
    19   10   12 1
    20   10   13 1
    21   14   15 1
    22   15   16 2
    23   15   17 1
    24   15   18 1
    25   19   20 2
    26   19   38 1
    27   20   21 1
    28   20   39 1
    29   21   26 ar
    30   21   22 ar
    31   22   23 ar
    32   22   40 1
    33   23   24 ar
    34   23   31 1
    35   24   25 ar
    36   24   29 1
    37   25   26 ar
    38   25   27 1
    39   26   41 1
    40   27   28 1
    41   28   42 1
    42   28   43 1
    43   28   44 1
    44   29   30 1
    45   30   45 1
    46   30   46 1
    47   30   47 1
    48   31   32 1
    49   32   48 1
    50   32   49 1
    51   32   50 1
@<TRIPOS>MOLECULE
ZINC16928509
   44    46     0     0     0
SMALL
USER_CHARGES

@<TRIPOS>ATOM
      1 C1         -0.8939   -1.8139    0.8843 C.3       1 <0>        -0.1538
      2 C2         -0.6963   -3.1177    0.1085 C.3       1 <0>         0.0118
      3 H1         -1.6644   -3.4941   -0.2220 H         1 <0>         0.0640
      4 C3         -0.0386   -4.1385    1.0010 C.2       1 <0>         0.5037
      5 O1         -0.6256   -4.5572    1.9842 O.co2     1 <0>        -0.7022
      6 O2          1.0806   -4.5456    0.7399 O.co2     1 <0>        -0.6578
      7 O3          0.1337   -2.8741   -1.0289 O.3       1 <0>        -0.2696
      8 C4         -0.4773   -2.4162   -2.1507 C.ar      1 <0>         0.1521
      9 C5         -1.8250   -2.0945   -2.1276 C.ar      1 <0>        -0.2273
     10 C6         -2.4463   -1.6288   -3.2704 C.ar      1 <0>        -0.0921
     11 C7         -1.7305   -1.4790   -4.4475 C.ar      1 <0>        -0.1699
     12 C8         -0.3902   -1.7932   -4.4913 C.ar      1 <0>        -0.0738
     13 C9          0.2545   -2.2603   -3.3396 C.ar      1 <0>        -0.0804
     14 C10         1.6838   -2.5916   -3.3760 C.2       1 <0>        -0.0299
     15 C11         2.3016   -2.8023   -4.5662 C.2       1 <0>        -0.1662
     16 C12         3.7404   -2.9821   -4.8699 C.2       1 <0>         0.5199
     17 O4          4.5914   -2.9558   -3.9950 O.2       1 <0>        -0.5504
     18 N1          4.0504   -3.1722   -6.1333 N.2       1 <0>        -0.6936
     19 C13         3.1376   -3.2034   -7.0915 C.2       1 <0>         0.4137
     20 S1          1.6067   -2.9486   -6.2076 S.3       1 <0>        -0.1634
     21 N2          3.3224   -3.3907   -8.4369 N.2       1 <0>        -0.5528
     22 C14         4.5754   -3.7775   -8.9236 C.ar      1 <0>         0.0915
     23 C15         5.4835   -4.3999   -8.0794 C.ar      1 <0>        -0.1018
     24 C16         6.7361   -4.7882   -8.5621 C.ar      1 <0>        -0.1619
     25 C17         7.0728   -4.5494   -9.8939 C.ar      1 <0>        -0.0741
     26 C18         6.1573   -3.9236  -10.7393 C.ar      1 <0>        -0.1702
     27 C19         4.9047   -3.5430  -10.2506 C.ar      1 <0>        -0.0907
     28 C20         6.5088   -3.6686  -12.1497 C.2       1 <0>         0.5352
     29 O5          7.6035   -4.0061  -12.5778 O.co2     1 <0>        -0.7071
     30 O6          5.7053   -3.1198  -12.8905 O.co2     1 <0>        -0.7136
     31 C21         7.7016   -5.4497   -7.6631 C.2       1 <0>         0.5277
     32 O7          7.4058   -5.6583   -6.4951 O.co2     1 <0>        -0.6911
     33 O8          8.7976   -5.7892   -8.0863 O.co2     1 <0>        -0.7158
     34 H2          0.0741   -1.4375    1.2149 H         1 <0>         0.0588
     35 H3         -1.3697   -1.0756    0.2388 H         1 <0>         0.0477
     36 H4         -1.5271   -1.9997    1.7519 H         1 <0>         0.0662
     37 H5         -2.3908   -2.2084   -1.2147 H         1 <0>         0.1235
     38 H6         -3.4970   -1.3802   -3.2462 H         1 <0>         0.1100
     39 H7         -2.2263   -1.1145   -5.3351 H         1 <0>         0.1151
     40 H8          0.1635   -1.6752   -5.4111 H         1 <0>         0.1496
     41 H9          2.2441   -2.6678   -2.4558 H         1 <0>         0.1484
     42 H10         5.2222   -4.5841   -7.0478 H         1 <0>         0.1460
     43 H11         8.0402   -4.8480  -10.2697 H         1 <0>         0.1158
     44 H12         4.1935   -3.0620  -10.9059 H         1 <0>         0.1087
@<TRIPOS>BOND
     1    1    2 1
     2    1   34 1
     3    1   35 1
     4    1   36 1
     5    2    3 1
     6    2    4 1
     7    2    7 1
     8    4    5 2
     9    4    6 1
    10    7    8 1
    11    8   13 ar
    12    8    9 ar
    13    9   10 ar
    14    9   37 1
    15   10   11 ar
    16   10   38 1
    17   11   12 ar
    18   11   39 1
    19   12   13 ar
    20   12   40 1
    21   13   14 1
    22   14   15 2
    23   14   41 1
    24   15   20 1
    25   15   16 1
    26   16   17 2
    27   16   18 1
    28   18   19 2
    29   19   20 1
    30   19   21 1
    31   21   22 1
    32   22   27 ar
    33   22   23 ar
    34   23   24 ar
    35   23   42 1
    36   24   25 ar
    37   24   31 1
    38   25   26 ar
    39   25   43 1
    40   26   27 ar
    41   26   28 1
    42   27   44 1
    43   28   29 2
    44   28   30 1
    45   31   32 2
    46   31   33 1
@<TRIPOS>MOLECULE
ZINC39869949
   41    43     0     0     0
SMALL
USER_CHARGES

@<TRIPOS>ATOM
      1 C1          0.0838    1.6067    0.7426 C.ar      1 <0>        -0.0648
      2 C2          1.2344    2.2480    0.3164 C.ar      1 <0>        -0.1433
      3 C3          2.3841    1.5228    0.0560 C.ar      1 <0>        -0.0561
      4 C4          2.3920    0.1537    0.2195 C.ar      1 <0>        -0.0614
      5 C5          1.2334   -0.5022    0.6500 C.ar      1 <0>         0.0518
      6 C6          0.0749    0.2387    0.9111 C.ar      1 <0>        -0.1275
      7 C7          1.2327   -1.9616    0.8266 C.2       1 <0>        -0.2063
      8 C8          0.0598   -2.6307    0.9297 C.2       1 <0>        -0.0071
      9 C9          0.0591   -4.0293    1.0990 C.2       1 <0>        -0.1180
     10 C10        -1.1224   -4.7033    1.2028 C.2       1 <0>        -0.0939
     11 C11        -1.3756   -6.1494    1.3887 C.2       1 <0>         0.5050
     12 O1         -0.4637   -6.9568    1.4752 O.2       1 <0>        -0.5488
     13 N1         -2.6364   -6.5176    1.4562 N.2       1 <0>        -0.6791
     14 C12        -3.6341   -5.6530    1.3644 C.2       1 <0>         0.4081
     15 S1         -2.8006   -4.0866    1.1605 S.3       1 <0>        -0.1539
     16 N2         -4.9820   -5.8995    1.4180 N.2       1 <0>        -0.5182
     17 C13        -5.4471   -7.1665    1.7848 C.ar      1 <0>         0.0747
     18 C14        -4.6473   -8.0022    2.5506 C.ar      1 <0>        -0.0916
     19 C15        -5.1084   -9.2689    2.9187 C.ar      1 <0>        -0.1628
     20 C16        -6.3742   -9.6925    2.5156 C.ar      1 <0>        -0.0616
     21 C17        -7.1754   -8.8495    1.7463 C.ar      1 <0>        -0.1676
     22 C18        -6.7094   -7.5821    1.3866 C.ar      1 <0>        -0.0793
     23 C19        -8.5157   -9.2932    1.3168 C.2       1 <0>         0.5333
     24 O2         -8.9244  -10.4009    1.6355 O.co2     1 <0>        -0.7015
     25 O3         -9.2177   -8.5533    0.6421 O.co2     1 <0>        -0.7098
     26 C20        -4.2564  -10.1575    3.7326 C.2       1 <0>         0.5285
     27 O4         -3.1462   -9.7855    4.0853 O.co2     1 <0>        -0.6950
     28 O5         -4.6606  -11.2660    4.0542 O.co2     1 <0>        -0.7085
     29 N3          3.6226   -0.6201   -0.0600 N.pl3     1 <0>         0.0364
     30 O6          4.7040   -0.1584    0.2213 O.2       1 <0>        -0.1787
     31 O7          3.5463   -1.7138   -0.5695 O.3       1 <0>        -0.1397
     32 H1         -0.8079    2.1804    0.9480 H         1 <0>         0.1392
     33 H2          1.2347    3.3201    0.1860 H         1 <0>         0.1381
     34 H3          3.2774    2.0305   -0.2765 H         1 <0>         0.1396
     35 H4         -0.8233   -0.2601    1.2440 H         1 <0>         0.1501
     36 H5          2.1676   -2.5003    0.8741 H         1 <0>         0.1343
     37 H6         -0.8751   -2.0921    0.8822 H         1 <0>         0.1189
     38 H7          0.9940   -4.5680    1.1465 H         1 <0>         0.1413
     39 H8         -3.6670   -7.6734    2.8625 H         1 <0>         0.1413
     40 H9         -6.7331  -10.6711    2.7982 H         1 <0>         0.1209
     41 H10        -7.3311   -6.9269    0.7945 H         1 <0>         0.1128
@<TRIPOS>BOND
     1    1    6 ar
     2    1    2 ar
     3    1   32 1
     4    2    3 ar
     5    2   33 1
     6    3    4 ar
     7    3   34 1
     8    4    5 ar
     9    4   29 1
    10    5    6 ar
    11    5    7 1
    12    6   35 1
    13    7    8 2
    14    7   36 1
    15    8    9 1
    16    8   37 1
    17    9   10 2
    18    9   38 1
    19   10   15 1
    20   10   11 1
    21   11   12 2
    22   11   13 1
    23   13   14 2
    24   14   15 1
    25   14   16 1
    26   16   17 1
    27   17   22 ar
    28   17   18 ar
    29   18   19 ar
    30   18   39 1
    31   19   20 ar
    32   19   26 1
    33   20   21 ar
    34   20   40 1
    35   21   22 ar
    36   21   23 1
    37   22   41 1
    38   23   24 2
    39   23   25 1
    40   26   27 2
    41   26   28 1
    42   29   30 2
    43   29   31 1
@<TRIPOS>MOLECULE
ZINC17223276
   44    44     0     0     0
SMALL
USER_CHARGES
3-[2-carboxyethyl-[4-[(E)-2-cyano-3-ethoxy-3-oxo-prop-1-enyl]-2-iodo-phenyl]amino]propanoic acid
@<TRIPOS>ATOM
      1 C1          1.5043   -9.7022   -1.6985 C.3       1 <0>        -0.1543
      2 C2          0.4468   -8.9508   -0.8874 C.3       1 <0>         0.0636
      3 O1          0.6500   -7.5206   -1.0345 O.3       1 <0>        -0.3509
      4 C3         -0.2046   -6.7102   -0.3780 C.2       1 <0>         0.5303
      5 O2         -1.0952   -7.1863    0.2990 O.2       1 <0>        -0.5060
      6 C4         -0.0595   -5.2518   -0.4806 C.2       1 <0>        -0.1296
      7 C5         -0.9338   -4.4226    0.1912 C.2       1 <0>         0.1105
      8 C6         -0.8943   -2.9782   -0.0380 C.ar      1 <0>        -0.1418
      9 C7         -0.6054   -2.4757   -1.3162 C.ar      1 <0>        -0.0516
     10 C8         -0.5762   -1.1274   -1.5264 C.ar      1 <0>        -0.1493
     11 C9         -0.8209   -0.2497   -0.4719 C.ar      1 <0>         0.1930
     12 C10        -1.1080   -0.7433    0.7997 C.ar      1 <0>        -0.0969
     13 C11        -1.1457   -2.0905    1.0192 C.ar      1 <0>        -0.0341
     14 I1         -1.4828    0.5841    2.3767 I         1 <0>        -0.0136
     15 N1         -0.7842    1.1217   -0.6901 N.pl3     1 <0>        -0.5180
     16 C12         0.5397    1.5437   -1.1667 C.3       1 <0>         0.0756
     17 C13         1.5313    1.5239   -0.0017 C.3       1 <0>        -0.1450
     18 C14         2.8580    2.0706   -0.4620 C.2       1 <0>         0.4643
     19 O3          2.9963    2.4384   -1.6046 O.co2     1 <0>        -0.6417
     20 C15        -1.8373    1.5339   -1.6277 C.3       1 <0>         0.0880
     21 C16        -1.9803    3.0569   -1.5964 C.3       1 <0>        -0.1517
     22 C17        -3.1695    3.4669   -2.4264 C.2       1 <0>         0.4670
     23 O4         -3.8343    2.6272   -2.9856 O.co2     1 <0>        -0.6484
     24 C18         0.9895   -4.6910   -1.2780 C.1       1 <0>         0.2480
     25 N2          1.8217   -4.2461   -1.9105 N.1       1 <0>        -0.3942
     26 H1          1.4174   -9.4292   -2.7502 H         1 <0>         0.0671
     27 H2          2.4972   -9.4370   -1.3352 H         1 <0>         0.0673
     28 H3          1.3518  -10.7758   -1.5881 H         1 <0>         0.0793
     29 H4          0.5338   -9.2238    0.1643 H         1 <0>         0.0722
     30 H5         -0.5460   -9.2160   -1.2508 H         1 <0>         0.0722
     31 H6         -1.6475   -4.8397    0.8862 H         1 <0>         0.1660
     32 H7         -0.4113   -3.1549   -2.1332 H         1 <0>         0.1269
     33 H8         -0.3590   -0.7400   -2.5108 H         1 <0>         0.1373
     34 H9         -1.3681   -2.4721    2.0048 H         1 <0>         0.1391
     35 H10         0.8801    0.8610   -1.9453 H         1 <0>         0.0382
     36 H11         0.4751    2.5535   -1.5718 H         1 <0>         0.0920
     37 H12         1.1476    2.1387    0.8124 H         1 <0>         0.0769
     38 H13         1.6618    0.4994    0.3470 H         1 <0>         0.0525
     39 H14        -1.5719    1.2145   -2.6355 H         1 <0>         0.0373
     40 H15        -2.7822    1.0742   -1.3378 H         1 <0>         0.0748
     41 H16        -2.1240    3.3873   -0.5677 H         1 <0>         0.0765
     42 H17        -1.0785    3.5149   -2.0026 H         1 <0>         0.0693
     43 O5          3.8862    2.1491    0.3974 O.co2     1 <0>        -0.7806
     44 O6         -3.4900    4.7650   -2.5445 O.co2     1 <0>        -0.7774
@<TRIPOS>BOND
     1    1    2 1
     2    1   26 1
     3    1   27 1
     4    1   28 1
     5    2    3 1
     6    2   29 1
     7    2   30 1
     8    3    4 1
     9    4    5 2
    10    4    6 1
    11    6    7 2
    12    6   24 1
    13    7    8 1
    14    7   31 1
    15    8   13 ar
    16    8    9 ar
    17    9   10 ar
    18    9   32 1
    19   10   11 ar
    20   10   33 1
    21   11   12 ar
    22   11   15 1
    23   12   13 ar
    24   12   14 1
    25   13   34 1
    26   15   16 1
    27   15   20 1
    28   16   17 1
    29   16   35 1
    30   16   36 1
    31   17   18 1
    32   17   37 1
    33   17   38 1
    34   18   19 2
    35   18   43 1
    36   20   21 1
    37   20   39 1
    38   20   40 1
    39   21   22 1
    40   21   41 1
    41   21   42 1
    42   22   23 2
    43   22   44 1
    44   24   25 3
@<TRIPOS>MOLECULE
ZINC35053071
   46    49     0     0     0
SMALL
USER_CHARGES

@<TRIPOS>ATOM
      1 C1         -0.0173    1.4248    0.0099 C.3       1 <0>         0.0359
      2 O1          0.0021   -0.0041    0.0020 O.3       1 <0>        -0.3513
      3 C2          0.6005   -0.6018   -1.0464 C.2       1 <0>         0.5152
      4 O2          1.0924    0.0714   -1.9298 O.2       1 <0>        -0.5139
      5 C3          0.6585   -2.0760   -1.1219 C.ar      1 <0>        -0.1475
      6 C4          0.0891   -2.8529   -0.1110 C.ar      1 <0>        -0.0628
      7 C5          0.1469   -4.2290   -0.1877 C.ar      1 <0>        -0.1170
      8 C6          0.7674   -4.8396   -1.2632 C.ar      1 <0>        -0.0113
      9 C7          1.3341   -4.0758   -2.2682 C.ar      1 <0>        -0.1112
     10 C8          1.2780   -2.6989   -2.2072 C.ar      1 <0>        -0.0513
     11 C9          0.8266   -6.3435   -1.3401 C.3       1 <0>         0.0687
     12 H1          0.3312   -6.7646   -0.4653 H         1 <0>         0.0845
     13 C10         0.1158   -6.7960   -2.5661 C.2       1 <0>        -0.3233
     14 C11         0.4449   -7.7938   -3.4357 C.2       1 <0>         0.1525
     15 N1         -0.4077   -7.9633   -4.4457 N.2       1 <0>        -0.6365
     16 C12        -1.4772   -7.2142   -4.5846 C.2       1 <0>         0.4271
     17 O3         -2.4243   -7.2705   -5.5526 O.3       1 <0>        -0.6445
     18 S1         -1.3880   -6.1668   -3.2687 S.3       1 <0>        -0.1231
     19 S2          1.9188   -8.7588   -3.1878 S.3       1 <0>        -0.0433
     20 C13         2.3775   -8.3099   -1.4845 C.3       1 <0>        -0.1274
     21 H2          1.6909   -8.7831   -0.7826 H         1 <0>         0.0883
     22 C14         2.2887   -6.7858   -1.3471 C.3       1 <0>        -0.0995
     23 H3          2.8045   -6.3159   -2.1845 H         1 <0>         0.1018
     24 C15         2.9449   -6.3625   -0.0582 C.2       1 <0>         0.4314
     25 O4          2.2883   -6.2800    0.9580 O.2       1 <0>        -0.4553
     26 C16         4.3812   -6.0497   -0.0329 C.ar      1 <0>        -0.1453
     27 C17         5.1406   -6.1384   -1.2050 C.ar      1 <0>        -0.0138
     28 C18         6.4858   -5.8439   -1.1743 C.ar      1 <0>        -0.1596
     29 C19         7.0881   -5.4605    0.0151 C.ar      1 <0>         0.1119
     30 C20         6.3411   -5.3706    1.1805 C.ar      1 <0>        -0.1762
     31 C21         4.9937   -5.6563    1.1623 C.ar      1 <0>        -0.0339
     32 F1          8.4081   -5.1739    0.0386 F         1 <0>        -0.1464
     33 C22         3.7860   -8.7648   -1.2015 C.2       1 <0>         0.5175
     34 O5          4.5754   -8.9108   -2.1191 O.co2     1 <0>        -0.6624
     35 O6          4.1361   -8.9869   -0.0549 O.co2     1 <0>        -0.6740
     36 H4          1.0053    1.8021    0.0021 H         1 <0>         0.0577
     37 H5         -0.5445    1.7859   -0.8732 H         1 <0>         0.0580
     38 H6         -0.5275    1.7763    0.9067 H         1 <0>         0.0983
     39 H7         -0.3952   -2.3775    0.7291 H         1 <0>         0.1320
     40 H8         -0.2928   -4.8311    0.5936 H         1 <0>         0.1314
     41 H9          1.8175   -4.5588   -3.1045 H         1 <0>         0.1336
     42 H10         1.7165   -2.1039   -2.9947 H         1 <0>         0.1329
     43 H11         4.6730   -6.4374   -2.1314 H         1 <0>         0.1479
     44 H12         7.0730   -5.9119   -2.0781 H         1 <0>         0.1362
     45 H13         6.8161   -5.0715    2.1032 H         1 <0>         0.1315
     46 H14         4.4123   -5.5816    2.0694 H         1 <0>         0.1365
@<TRIPOS>BOND
     1    1    2 1
     2    1   36 1
     3    1   37 1
     4    1   38 1
     5    2    3 1
     6    3    4 2
     7    3    5 1
     8    5   10 ar
     9    5    6 ar
    10    6    7 ar
    11    6   39 1
    12    7    8 ar
    13    7   40 1
    14    8    9 ar
    15    8   11 1
    16    9   10 ar
    17    9   41 1
    18   10   42 1
    19   11   12 1
    20   11   22 1
    21   11   13 1
    22   13   18 1
    23   13   14 2
    24   14   15 1
    25   14   19 1
    26   15   16 2
    27   16   17 1
    28   16   18 1
    29   19   20 1
    30   20   21 1
    31   20   22 1
    32   20   33 1
    33   22   23 1
    34   22   24 1
    35   24   25 2
    36   24   26 1
    37   26   31 ar
    38   26   27 ar
    39   27   28 ar
    40   27   43 1
    41   28   29 ar
    42   28   44 1
    43   29   30 ar
    44   29   32 1
    45   30   31 ar
    46   30   45 1
    47   31   46 1
    48   33   34 2
    49   33   35 1
@<TRIPOS>MOLECULE
ZINC39703824
   53    55     0     0     0
SMALL
USER_CHARGES

@<TRIPOS>ATOM
      1 C1         -0.0173    1.4248    0.0099 C.3       1 <0>         0.0269
      2 O1          0.0021   -0.0041    0.0020 O.3       1 <0>        -0.3449
      3 C2         -1.1855   -0.6297    0.0100 C.2       1 <0>         0.4656
      4 O2         -2.2076    0.0145    0.0232 O.2       1 <0>        -0.4800
      5 C3         -1.2439   -2.1355    0.0025 C.3       1 <0>        -0.0705
      6 H1         -0.7236   -2.5158    0.8815 H         1 <0>         0.1345
      7 C4         -0.5375   -2.6625   -1.2705 C.3       1 <0>         0.2049
      8 H2         -0.0302   -3.6090   -1.0838 H         1 <0>         0.1559
      9 S1         -2.0207   -2.8894   -2.3408 S.3       1 <0>        -0.1947
     10 C5         -3.2400   -2.9944   -1.0543 C.2       1 <0>        -0.0661
     11 C6         -2.6897   -2.5736    0.0568 C.2       1 <0>        -0.1357
     12 C7         -3.4835   -2.4807    1.3659 C.3       1 <0>        -0.0522
     13 C8         -4.5969   -1.4543    1.1645 C.3       1 <0>        -0.1236
     14 C9         -5.7908   -2.0484    0.4572 C.3       1 <0>        -0.1154
     15 C10        -5.6086   -2.3318   -1.0169 C.3       1 <0>        -0.1134
     16 C11        -4.6547   -3.5155   -1.2142 C.3       1 <0>        -0.0471
     17 N1          0.3813   -1.6663   -1.8270 N.am      1 <0>        -0.6966
     18 C12         1.6153   -2.0353   -2.2241 C.2       1 <0>         0.5486
     19 O3          1.9650   -3.1920   -2.1207 O.2       1 <0>        -0.5091
     20 C13         2.5605   -1.0106   -2.7965 C.3       1 <0>        -0.1430
     21 S2          4.1285   -1.8115   -3.2329 S.3       1 <0>         0.0292
     22 C14         5.1118   -0.4998   -3.8789 C.ar      1 <0>         0.2492
     23 N2          6.3455   -0.7506   -4.3001 N.ar      1 <0>        -0.5762
     24 C15         7.0823    0.2424   -4.7862 C.ar      1 <0>         0.4211
     25 O4          8.3448    0.0159   -5.2239 O.3       1 <0>        -0.6592
     26 C16         6.5304    1.5231   -4.8376 C.ar      1 <0>        -0.0388
     27 N3          5.2982    1.7114   -4.4041 N.ar      1 <0>        -0.2061
     28 N4          4.6086    0.7270   -3.9438 N.ar      1 <0>        -0.4100
     29 C17         7.3322    2.6775   -5.3811 C.3       1 <0>        -0.0103
     30 C18         7.0971    2.7969   -6.8882 C.3       1 <0>        -0.1654
     31 C19         7.8989    3.9514   -7.4318 C.2       1 <0>         0.4977
     32 O5          8.5939    4.6169   -6.6832 O.co2     1 <0>        -0.7015
     33 O6          7.8525    4.2198   -8.6202 O.co2     1 <0>        -0.7189
     34 H3          1.0053    1.8021    0.0021 H         1 <0>         0.1114
     35 H4         -0.5445    1.7859   -0.8732 H         1 <0>         0.0657
     36 H5         -0.5275    1.7763    0.9067 H         1 <0>         0.0613
     37 H6         -3.9158   -3.4523    1.6053 H         1 <0>         0.0765
     38 H7         -2.8265   -2.1590    2.1740 H         1 <0>         0.0681
     39 H8         -4.9124   -1.0778    2.1375 H         1 <0>         0.0603
     40 H9         -4.2111   -0.6241    0.5728 H         1 <0>         0.0868
     41 H10        -6.0510   -2.9830    0.9542 H         1 <0>         0.0549
     42 H11        -6.6304   -1.3627    0.5711 H         1 <0>         0.0567
     43 H12        -6.5755   -2.5689   -1.4606 H         1 <0>         0.0686
     44 H13        -5.1979   -1.4483   -1.5057 H         1 <0>         0.0692
     45 H14        -4.7863   -3.9275   -2.2147 H         1 <0>         0.0796
     46 H15        -4.8523   -4.2846   -0.4676 H         1 <0>         0.0868
     47 H16         0.1016   -0.7412   -1.9096 H         1 <0>         0.4094
     48 H17         2.1185   -0.5669   -3.6886 H         1 <0>         0.1219
     49 H18         2.7439   -0.2319   -2.0562 H         1 <0>         0.1238
     50 H19         7.0202    3.5995   -4.8906 H         1 <0>         0.0612
     51 H20         8.3916    2.5055   -5.1912 H         1 <0>         0.0769
     52 H21         7.4092    1.8749   -7.3788 H         1 <0>         0.0562
     53 H22         6.0377    2.9690   -7.0782 H         1 <0>         0.0496
@<TRIPOS>BOND
     1    1    2 1
     2    1   34 1
     3    1   35 1
     4    1   36 1
     5    2    3 1
     6    3    4 2
     7    3    5 1
     8    5    6 1
     9    5   11 1
    10    5    7 1
    11    7    8 1
    12    7    9 1
    13    7   17 1
    14    9   10 1
    15   10   16 1
    16   10   11 2
    17   11   12 1
    18   12   13 1
    19   12   37 1
    20   12   38 1
    21   13   14 1
    22   13   39 1
    23   13   40 1
    24   14   15 1
    25   14   41 1
    26   14   42 1
    27   15   16 1
    28   15   43 1
    29   15   44 1
    30   16   45 1
    31   16   46 1
    32   17   18 am
    33   17   47 1
    34   18   19 2
    35   18   20 1
    36   20   21 1
    37   20   48 1
    38   20   49 1
    39   21   22 1
    40   22   23 ar
    41   22   28 ar
    42   23   24 ar
    43   24   25 1
    44   24   26 ar
    45   26   27 ar
    46   26   29 1
    47   27   28 ar
    48   29   30 1
    49   29   50 1
    50   29   51 1
    51   30   31 1
    52   30   52 1
    53   30   53 1
    54   31   32 2
    55   31   33 1
@<TRIPOS>MOLECULE
ZINC13218116
   44    48     0     0     0
SMALL
USER_CHARGES

@<TRIPOS>ATOM
      1 C1          1.0745   -0.3254    3.2113 C.ar      1 <0>        -0.1474
      2 C2          2.2608    0.3887    3.1798 C.ar      1 <0>        -0.0771
      3 C3          3.1212    0.2667    2.1048 C.ar      1 <0>        -0.1753
      4 C4          2.8017   -0.5707    1.0517 C.ar      1 <0>         0.1426
      5 C5          1.6046   -1.2946    1.0782 C.ar      1 <0>        -0.1720
      6 C6          0.7420   -1.1645    2.1697 C.ar      1 <0>        -0.0384
      7 C7          1.2543   -2.1913   -0.0422 C.2       1 <0>         0.5064
      8 O1          1.9706   -2.2463   -1.0243 O.2       1 <0>        -0.4525
      9 C8          0.0435   -3.0148    0.0291 C.2       1 <0>        -0.4924
     10 C9         -0.0111   -4.3654    0.1069 C.2       1 <0>         0.2794
     11 C10        -1.4245   -4.7917    0.1602 C.2       1 <0>         0.5135
     12 O2         -1.8027   -5.9439    0.2338 O.2       1 <0>        -0.4829
     13 N1         -2.2310   -3.7158    0.1158 N.am      1 <0>        -0.5075
     14 C11        -1.3840   -2.5199    0.0365 C.3       1 <0>         0.3108
     15 H1         -1.5541   -1.8794    0.9020 H         1 <0>         0.0990
     16 C12        -1.6771   -1.7642   -1.2339 C.2       1 <0>        -0.1045
     17 C13        -1.6520   -0.4275   -1.4571 C.2       1 <0>        -0.1659
     18 C14        -1.9597    0.0475   -2.7183 C.2       1 <0>        -0.1451
     19 C15        -2.2774   -0.8376   -3.6945 C.2       1 <0>        -0.1990
     20 S1         -2.1399   -2.3977   -2.8376 S.3       1 <0>         0.0550
     21 C16        -3.6124   -3.7334    0.1449 C.2       1 <0>         0.3846
     22 N2         -4.4521   -2.7221    0.0985 N.2       1 <0>        -0.5357
     23 C17        -5.7828   -2.8825    0.1351 C.ar      1 <0>         0.1024
     24 C18        -6.7829   -1.8779    0.0927 C.ar      1 <0>        -0.0897
     25 C19        -8.0983   -2.1981    0.1399 C.ar      1 <0>        -0.0728
     26 C20        -8.5247   -3.5323    0.2323 C.ar      1 <0>        -0.1198
     27 C21        -7.5637   -4.5503    0.2757 C.ar      1 <0>        -0.0291
     28 C22        -6.2379   -4.2216    0.2278 C.ar      1 <0>        -0.1723
     29 S2         -4.7148   -5.1368    0.2472 S.3       1 <0>         0.0338
     30 C23        -9.9588   -3.8563    0.2831 C.2       1 <0>         0.5265
     31 O3        -10.7904   -2.9595    0.2449 O.co2     1 <0>        -0.6873
     32 O4        -10.3201   -5.0225    0.3636 O.co2     1 <0>        -0.6860
     33 O5          1.0588   -5.1931    0.1318 O.3       1 <0>        -0.6354
     34 F1          3.6423   -0.6892    0.0007 F         1 <0>        -0.1220
     35 H2          0.4099   -0.2278    4.0569 H         1 <0>         0.1309
     36 H3          2.5148    1.0447    3.9993 H         1 <0>         0.1294
     37 H4          4.0445    0.8267    2.0871 H         1 <0>         0.1332
     38 H5         -0.1835   -1.7204    2.1972 H         1 <0>         0.1424
     39 H6         -1.3957    0.2564   -0.6614 H         1 <0>         0.1272
     40 H7         -1.9474    1.1079   -2.9226 H         1 <0>         0.1250
     41 H8         -2.5413   -0.6483   -4.7245 H         1 <0>         0.1775
     42 H9         -6.4910   -0.8405    0.0221 H         1 <0>         0.1220
     43 H10        -8.8353   -1.4094    0.1060 H         1 <0>         0.1340
     44 H11        -7.8672   -5.5844    0.3464 H         1 <0>         0.1343
@<TRIPOS>BOND
     1    1    6 ar
     2    1    2 ar
     3    1   35 1
     4    2    3 ar
     5    2   36 1
     6    3    4 ar
     7    3   37 1
     8    4    5 ar
     9    4   34 1
    10    5    6 ar
    11    5    7 1
    12    6   38 1
    13    7    8 2
    14    7    9 1
    15    9   14 1
    16    9   10 2
    17   10   11 1
    18   10   33 1
    19   11   12 2
    20   11   13 am
    21   13   14 1
    22   13   21 1
    23   14   15 1
    24   14   16 1
    25   16   20 1
    26   16   17 2
    27   17   18 1
    28   17   39 1
    29   18   19 2
    30   18   40 1
    31   19   20 1
    32   19   41 1
    33   21   29 1
    34   21   22 2
    35   22   23 1
    36   23   28 ar
    37   23   24 ar
    38   24   25 ar
    39   24   42 1
    40   25   26 ar
    41   25   43 1
    42   26   27 ar
    43   26   30 1
    44   27   28 ar
    45   27   44 1
    46   28   29 1
    47   30   31 2
    48   30   32 1
@<TRIPOS>MOLECULE
ZINC63520923
   51    54     0     0     0
SMALL
USER_CHARGES

@<TRIPOS>ATOM
      1 C1         -1.5571    0.6963    6.1395 C.3       1 <0>        -0.1488
      2 C2         -0.8767    0.6129    4.7717 C.3       1 <0>         0.0581
      3 O1         -0.1000   -0.5844    4.6983 O.3       1 <0>        -0.3445
      4 C3          0.5683   -0.8108    3.5498 C.2       1 <0>         0.5672
      5 O2          0.4935   -0.0130    2.6356 O.2       1 <0>        -0.5269
      6 C4          1.3876   -2.0223    3.4028 C.2       1 <0>        -0.2206
      7 C5          0.8479   -3.1907    2.8953 C.2       1 <0>        -0.1851
      8 S1          2.1260   -4.2793    2.9115 S.3       1 <0>         0.1217
      9 C6          3.4003   -3.2317    3.5837 C.2       1 <0>        -0.3616
     10 C7          2.7343   -2.0275    3.7652 C.2       1 <0>         0.2966
     11 O3          3.3521   -0.9284    4.2670 O.3       1 <0>        -0.6989
     12 C8          4.7984   -3.5573    3.8683 C.2       1 <0>         0.0713
     13 C9          5.2934   -3.9758    5.0609 C.2       1 <0>        -0.2034
     14 C10         6.8140   -3.8900    4.9218 C.3       1 <0>         0.2979
     15 H1          7.2026   -3.0416    5.4850 H         1 <0>         0.1094
     16 N1          7.0576   -3.7103    3.5009 N.2       1 <0>        -0.4911
     17 C11         5.9235   -3.4940    2.9017 C.2       1 <0>         0.2335
     18 C12         5.7770   -3.1986    1.4594 C.ar      1 <0>        -0.0397
     19 C13         4.5378   -2.8100    0.9472 C.ar      1 <0>        -0.0431
     20 C14         4.4041   -2.5349   -0.3964 C.ar      1 <0>        -0.1878
     21 C15         5.5003   -2.6436   -1.2422 C.ar      1 <0>         0.1017
     22 C16         6.7373   -3.0305   -0.7365 C.ar      1 <0>         0.0489
     23 C17         6.8792   -3.3022    0.6086 C.ar      1 <0>        -0.0763
     24 F1          7.8014   -3.1355   -1.5623 F         1 <0>        -0.1393
     25 O4          5.3643   -2.3720   -2.5660 O.3       1 <0>        -0.3137
     26 C18         4.0664   -1.9808   -3.0180 C.3       1 <0>         0.0254
     27 N2          7.3032   -5.1512    5.4917 N.pl3     1 <0>        -0.6431
     28 C19         6.7376   -5.5398    6.6808 C.2       1 <0>         0.6531
     29 O5          7.4594   -6.3210    7.5074 O.3       1 <0>        -0.6953
     30 N3          5.5278   -5.1875    7.0532 N.2       1 <0>        -0.6989
     31 C20         4.7221   -4.4192    6.2759 C.2       1 <0>         0.5585
     32 O6          3.5826   -4.1304    6.6039 O.2       1 <0>        -0.5224
     33 C21         8.3365   -5.9506    4.8287 C.3       1 <0>         0.1275
     34 C22        -0.5660   -3.4315    2.4329 C.3       1 <0>        -0.0616
     35 H2         -0.7988    0.7065    6.9225 H         1 <0>         0.0677
     36 H3         -2.1495    1.6096    6.1956 H         1 <0>         0.0696
     37 H4         -2.2077   -0.1677    6.2750 H         1 <0>         0.0628
     38 H5         -1.6349    0.6027    3.9887 H         1 <0>         0.0564
     39 H6         -0.2261    1.4769    4.6362 H         1 <0>         0.0610
     40 H7          3.6843   -2.7254    1.6036 H         1 <0>         0.1681
     41 H8          3.4452   -2.2347   -0.7925 H         1 <0>         0.1395
     42 H9          7.8403   -3.5982    1.0022 H         1 <0>         0.1505
     43 H10         4.0965   -1.7941   -4.0915 H         1 <0>         0.0965
     44 H11         3.3529   -2.7776   -2.8077 H         1 <0>         0.0582
     45 H12         3.7596   -1.0723   -2.4997 H         1 <0>         0.0588
     46 H13         9.3197   -5.6349    5.1775 H         1 <0>         0.0303
     47 H14         8.1881   -7.0042    5.0650 H         1 <0>         0.0546
     48 H15         8.2704   -5.8073    3.7501 H         1 <0>         0.0552
     49 H16        -0.6460   -3.1974    1.3713 H         1 <0>         0.0688
     50 H17        -0.8282   -4.4770    2.5951 H         1 <0>         0.0699
     51 H18        -1.2465   -2.7944    2.9977 H         1 <0>         0.0633
@<TRIPOS>BOND
     1    1    2 1
     2    1   35 1
     3    1   36 1
     4    1   37 1
     5    2    3 1
     6    2   38 1
     7    2   39 1
     8    3    4 1
     9    4    5 2
    10    4    6 1
    11    6   10 1
    12    6    7 2
    13    7    8 1
    14    7   34 1
    15    8    9 1
    16    9   10 2
    17    9   12 1
    18   10   11 1
    19   12   17 1
    20   12   13 2
    21   13   31 1
    22   13   14 1
    23   14   15 1
    24   14   16 1
    25   14   27 1
    26   16   17 2
    27   17   18 1
    28   18   23 ar
    29   18   19 ar
    30   19   20 ar
    31   19   40 1
    32   20   21 ar
    33   20   41 1
    34   21   22 ar
    35   21   25 1
    36   22   23 ar
    37   22   24 1
    38   23   42 1
    39   25   26 1
    40   26   43 1
    41   26   44 1
    42   26   45 1
    43   27   28 1
    44   27   33 1
    45   28   29 1
    46   28   30 2
    47   30   31 1
    48   31   32 2
    49   33   46 1
    50   33   47 1
    51   33   48 1
    52   34   49 1
    53   34   50 1
    54   34   51 1
@<TRIPOS>MOLECULE
ZINC13222263
   55    57     0     0     0
SMALL
USER_CHARGES
2-[5,7-dimethyl-2-[2-[[(1S,2S)-2-methylcyclohexyl]carbamoylamino]-2-oxo-ethyl]sulfanyl-[1,2,4]triazolo[1,5-a]pyrimidin-6-yl]acetic acid
@<TRIPOS>ATOM
      1 C1         -1.3339    2.1276    0.0199 C.3       1 <0>        -0.1106
      2 C2         -0.0169    1.3952    0.0097 C.2       1 <0>         0.2544
      3 C3          0.0021   -0.0041    0.0020 C.2       1 <0>        -0.1299
      4 C4          1.1966   -0.6514   -0.0128 C.2       1 <0>         0.1932
      5 N1          2.3423    0.0786   -0.0198 N.pl3     1 <0>        -0.3114
      6 C5          2.2894    1.4440   -0.0120 C.2       1 <0>         0.4573
      7 N2          1.1088    2.0734    0.0026 N.2       1 <0>        -0.4748
      8 N3          3.5413    1.8895   -0.0216 N.2       1 <0>        -0.5426
      9 C6          4.3843    0.8593   -0.0351 C.2       1 <0>         0.2223
     10 N4          3.7000   -0.2672   -0.0346 N.2       1 <0>        -0.3135
     11 S1          6.1420    0.9825   -0.0507 S.3       1 <0>         0.1100
     12 C7          6.4567    2.7690   -0.0444 C.3       1 <0>        -0.1564
     13 C8          7.9431    3.0172   -0.0568 C.2       1 <0>         0.5420
     14 O1          8.7138    2.0815   -0.0687 O.2       1 <0>        -0.4479
     15 N5          8.4156    4.2794   -0.0546 N.am      1 <0>        -0.6869
     16 C9          9.7449    4.5014   -0.0657 C.2       1 <0>         0.6962
     17 O2         10.5175    3.5634   -0.0777 O.2       1 <0>        -0.5256
     18 N6         10.2173    5.7637   -0.0635 N.am      1 <0>        -0.7326
     19 C10        11.6623    6.0050   -0.0756 C.3       1 <0>         0.1666
     20 H1         12.1647    5.2315    0.5052 H         1 <0>         0.0914
     21 C11        12.1727    5.9724   -1.5176 C.3       1 <0>        -0.1321
     22 C12        13.6818    6.2244   -1.5302 C.3       1 <0>        -0.1174
     23 C13        13.9751    7.5947   -0.9161 C.3       1 <0>        -0.1223
     24 C14        13.4647    7.6273    0.5258 C.3       1 <0>        -0.1115
     25 C15        11.9556    7.3753    0.5384 C.3       1 <0>        -0.0976
     26 H2         11.4532    8.1488   -0.0424 H         1 <0>         0.0763
     27 C16        11.4451    7.4079    1.9804 C.3       1 <0>        -0.1487
     28 C17         1.2498   -2.1574   -0.0219 C.3       1 <0>        -0.1175
     29 C18        -1.2874   -0.7839    0.0096 C.3       1 <0>        -0.1202
     30 C19        -1.7303   -1.0362   -1.4086 C.2       1 <0>         0.4669
     31 O3         -1.0668   -0.6250   -2.3309 O.co2     1 <0>        -0.6293
     32 H3         -1.6466    2.2986    1.0500 H         1 <0>         0.0927
     33 H4         -1.2214    3.0848   -0.4893 H         1 <0>         0.0879
     34 H5         -2.0864    1.5292   -0.4936 H         1 <0>         0.0975
     35 H6          6.0056    3.2205   -0.9279 H         1 <0>         0.1323
     36 H7          6.0220    3.2113    0.8520 H         1 <0>         0.1318
     37 H8          7.7989    5.0281   -0.0450 H         1 <0>         0.4128
     38 H9          9.6006    6.5123   -0.0540 H         1 <0>         0.3978
     39 H10        11.9637    4.9962   -1.9550 H         1 <0>         0.0700
     40 H11        11.6703    6.7459   -2.0984 H         1 <0>         0.0640
     41 H12        14.0454    6.2012   -2.5575 H         1 <0>         0.0655
     42 H13        14.1842    5.4509   -0.9493 H         1 <0>         0.0654
     43 H14        13.4727    8.3682   -1.4970 H         1 <0>         0.0626
     44 H15        15.0502    7.7743   -0.9251 H         1 <0>         0.0642
     45 H16        13.6737    8.6036    0.9633 H         1 <0>         0.0680
     46 H17        13.9671    6.8538    1.1067 H         1 <0>         0.0663
     47 H18        11.9476    6.6344    2.5612 H         1 <0>         0.0570
     48 H19        11.6541    8.3841    2.4179 H         1 <0>         0.0578
     49 H20        10.3701    7.2283    1.9894 H         1 <0>         0.0555
     50 H21         1.2530   -2.5147   -1.0517 H         1 <0>         0.0982
     51 H22         2.1568   -2.4920    0.4815 H         1 <0>         0.0829
     52 H23         0.3780   -2.5549    0.4978 H         1 <0>         0.0985
     53 H24        -1.1331   -1.7362    0.5170 H         1 <0>         0.0896
     54 H25        -2.0541   -0.2132    0.5336 H         1 <0>         0.0931
     55 O4         -2.8617   -1.7178   -1.6472 O.co2     1 <0>        -0.7593
@<TRIPOS>BOND
     1    1    2 1
     2    1   32 1
     3    1   33 1
     4    1   34 1
     5    2    7 2
     6    2    3 1
     7    3    4 2
     8    3   29 1
     9    4    5 1
    10    4   28 1
    11    5   10 1
    12    5    6 1
    13    6    7 1
    14    6    8 2
    15    8    9 1
    16    9   10 2
    17    9   11 1
    18   11   12 1
    19   12   13 1
    20   12   35 1
    21   12   36 1
    22   13   14 2
    23   13   15 am
    24   15   16 am
    25   15   37 1
    26   16   17 2
    27   16   18 am
    28   18   19 1
    29   18   38 1
    30   19   20 1
    31   19   25 1
    32   19   21 1
    33   21   22 1
    34   21   39 1
    35   21   40 1
    36   22   23 1
    37   22   41 1
    38   22   42 1
    39   23   24 1
    40   23   43 1
    41   23   44 1
    42   24   25 1
    43   24   45 1
    44   24   46 1
    45   25   26 1
    46   25   27 1
    47   27   47 1
    48   27   48 1
    49   27   49 1
    50   28   50 1
    51   28   51 1
    52   28   52 1
    53   29   30 1
    54   29   53 1
    55   29   54 1
    56   30   31 2
    57   30   55 1
@<TRIPOS>MOLECULE
ZINC33401127
   55    59     0     0     0
SMALL
USER_CHARGES
(3aR,4R,6R,6aR)-6-(carboxymethyl)-4-(1-naphthyl)-2-(o-tolyl)-1,3-dioxo-3a,4,5,6a-tetrahydropyrrolo[3,4-c]pyrrole-6-carboxylic acid
@<TRIPOS>ATOM
      1 C1         -0.9235    1.7354   -0.4054 C.3       1 <0>        -0.1218
      2 C2          0.2888    0.8481   -0.5238 C.ar      1 <0>        -0.0614
      3 C3          1.5431    1.4075   -0.6732 C.ar      1 <0>        -0.1144
      4 C4          2.6551    0.5940   -0.7876 C.ar      1 <0>        -0.1021
      5 C5          2.5156   -0.7815   -0.7530 C.ar      1 <0>        -0.1175
      6 C6          1.2643   -1.3465   -0.6039 C.ar      1 <0>        -0.0947
      7 C7          0.1457   -0.5321   -0.4887 C.ar      1 <0>         0.1103
      8 N1         -1.1259   -1.1027   -0.3367 N.am      1 <0>        -0.5499
      9 C8         -1.6869   -1.3962    0.8815 C.2       1 <0>         0.5801
     10 O1         -1.3123   -1.0324    1.9756 O.2       1 <0>        -0.4561
     11 C9         -2.8191   -2.2325    0.5727 C.3       1 <0>        -0.2310
     12 H1         -2.2710   -3.0924    0.9853 H         1 <0>         0.1701
     13 C10        -4.0878   -2.6995    1.1554 C.3       1 <0>         0.1163
     14 H2         -4.6830   -1.8809    1.5863 H         1 <0>         0.1507
     15 N2         -4.7405   -3.3828   -0.0107 N.4       1 <0>        -0.5049
     16 C11        -4.1646   -2.7952   -1.2567 C.3       1 <0>         0.0590
     17 C12        -3.3138   -1.6115   -0.7940 C.3       1 <0>        -0.0923
     18 H3         -3.8918   -0.6927   -0.9724 H         1 <0>         0.1960
     19 C13        -1.9422   -1.4211   -1.3845 C.2       1 <0>         0.5460
     20 O2         -1.6275   -1.5297   -2.5501 O.2       1 <0>        -0.4186
     21 C14        -3.2914   -3.8266   -1.9740 C.3       1 <0>        -0.1755
     22 C15        -4.1463   -4.9840   -2.4220 C.2       1 <0>         0.4390
     23 O3         -5.3323   -4.9839   -2.1913 O.co2     1 <0>        -0.5710
     24 O4         -3.5901   -6.0150   -3.0774 O.co2     1 <0>        -0.7682
     25 C16        -5.2661   -2.3206   -2.1692 C.2       1 <0>         0.4660
     26 O5         -5.1352   -1.2924   -2.7902 O.co2     1 <0>        -0.6112
     27 O6         -6.3925   -3.0401   -2.2921 O.co2     1 <0>        -0.6640
     28 C17        -3.8378   -3.6741    2.2773 C.ar      1 <0>        -0.1244
     29 C18        -3.7682   -5.0092    2.0210 C.ar      1 <0>        -0.1007
     30 C19        -3.5311   -5.9247    3.0443 C.ar      1 <0>        -0.1088
     31 C20        -3.3749   -5.5117    4.3319 C.ar      1 <0>        -0.0822
     32 C21        -3.4466   -4.1419    4.6361 C.ar      1 <0>        -0.0484
     33 C22        -3.6812   -3.2100    3.5942 C.ar      1 <0>        -0.0238
     34 C23        -3.7534   -1.8398    3.8988 C.ar      1 <0>        -0.1019
     35 C24        -3.5977   -1.4271    5.1862 C.ar      1 <0>        -0.1009
     36 C25        -3.3674   -2.3435    6.2108 C.ar      1 <0>        -0.1108
     37 C26        -3.2912   -3.6777    5.9536 C.ar      1 <0>        -0.1037
     38 H4         -0.6126    2.7894   -0.4540 H         1 <0>         0.0738
     39 H5         -1.4249    1.5449    0.5550 H         1 <0>         0.0722
     40 H6         -1.6179    1.5195   -1.2308 H         1 <0>         0.0735
     41 H7          1.6551    2.4813   -0.7006 H         1 <0>         0.1308
     42 H8          3.6346    1.0336   -0.9047 H         1 <0>         0.1286
     43 H9          3.3861   -1.4144   -0.8423 H         1 <0>         0.1306
     44 H10         1.1560   -2.4207   -0.5765 H         1 <0>         0.1268
     45 H11        -4.5351   -4.4625    0.0351 H         1 <0>         0.4408
     46 H12        -2.8176   -3.3600   -2.8502 H         1 <0>         0.1139
     47 H13        -2.5134   -4.1900   -1.2865 H         1 <0>         0.0640
     48 H14        -3.8935   -5.3637    1.0086 H         1 <0>         0.1288
     49 H15        -3.4755   -6.9782    2.8131 H         1 <0>         0.1372
     50 H16        -3.1971   -6.2332    5.1157 H         1 <0>         0.1351
     51 H17        -3.9320   -1.1183    3.1153 H         1 <0>         0.1278
     52 H18        -3.6537   -0.3737    5.4175 H         1 <0>         0.1263
     53 H19        -3.2480   -1.9895    7.2241 H         1 <0>         0.1254
     54 H20        -3.1126   -4.3762    6.7578 H         1 <0>         0.1301
     55 H21        -5.8269   -3.2143    0.0267 H         1 <0>         0.4609
@<TRIPOS>BOND
     1    1    2 1
     2    1   38 1
     3    1   39 1
     4    1   40 1
     5    2    7 ar
     6    2    3 ar
     7    3    4 ar
     8    3   41 1
     9    4    5 ar
    10    4   42 1
    11    5    6 ar
    12    5   43 1
    13    6    7 ar
    14    6   44 1
    15    7    8 1
    16    8   19 am
    17    8    9 am
    18    9   10 2
    19    9   11 1
    20   11   12 1
    21   11   17 1
    22   11   13 1
    23   13   14 1
    24   13   15 1
    25   13   28 1
    26   15   16 1
    27   15   45 1
    28   15   55 1
    29   16   17 1
    30   16   21 1
    31   16   25 1
    32   17   18 1
    33   17   19 1
    34   19   20 2
    35   21   22 1
    36   21   46 1
    37   21   47 1
    38   22   23 2
    39   22   24 1
    40   25   26 2
    41   25   27 1
    42   28   33 ar
    43   28   29 ar
    44   29   30 ar
    45   29   48 1
    46   30   31 ar
    47   30   49 1
    48   31   32 ar
    49   31   50 1
    50   32   37 ar
    51   32   33 ar
    52   33   34 ar
    53   34   35 ar
    54   34   51 1
    55   35   36 ar
    56   35   52 1
    57   36   37 ar
    58   36   53 1
    59   37   54 1
@<TRIPOS>MOLECULE
ZINC40114332
   42    45     0     0     0
SMALL
USER_CHARGES

@<TRIPOS>ATOM
      1 C1         -0.0163    1.3540    0.0095 C.2       1 <0>        -0.1545
      2 C2          1.1764    2.0417    0.0018 C.2       1 <0>        -0.1064
      3 C3          2.3479    1.3277   -0.0132 C.2       1 <0>        -0.0879
      4 S1          1.7522   -0.3554   -0.0166 S.3       1 <0>         0.0678
      5 C4          0.0021   -0.0041    0.0020 C.2       1 <0>        -0.1656
      6 C5          3.7346    1.8208   -0.0242 C.2       1 <0>         0.2488
      7 N1          4.1263    3.0476   -0.2898 N.2       1 <0>        -0.2526
      8 N2          5.4063    3.1265   -0.2087 N.2       1 <0>        -0.2930
      9 C6          5.9124    1.9579    0.1132 C.2       1 <0>         0.1605
     10 N3          4.8675    1.0863    0.2476 N.pl3     1 <0>        -0.4584
     11 C7          4.9384   -0.3331    0.6033 C.3       1 <0>         0.1172
     12 C8          5.0749   -1.1716   -0.6692 C.3       1 <0>        -0.1657
     13 C9          5.1478   -2.6317   -0.3034 C.2       1 <0>         0.5291
     14 O1          5.0958   -2.9685    0.8606 O.2       1 <0>        -0.5357
     15 N4          5.2709   -3.5632   -1.2696 N.am      1 <0>        -0.8514
     16 S2          7.6197    1.5846    0.3370 S.3       1 <0>         0.0787
     17 C10         8.4587    3.1618    0.0226 C.3       1 <0>        -0.0550
     18 C11         9.9461    2.9804    0.1829 C.2       1 <0>         0.2428
     19 C12        10.8023    4.0640   -0.0053 C.2       1 <0>        -0.3567
     20 C13        12.1503    3.8859    0.1433 C.2       1 <0>         0.4958
     21 N5         12.6228    2.6462    0.4733 N.pl3     1 <0>        -0.3381
     22 C14        11.7454    1.6125    0.6480 C.2       1 <0>         0.3767
     23 N6         10.4322    1.7995    0.5057 N.2       1 <0>        -0.5645
     24 C15        12.5145    0.4803    0.9760 C.2       1 <0>        -0.2616
     25 C16        13.8610    0.8884    0.9861 C.2       1 <0>         0.1280
     26 N7         13.9164    2.1602    0.6902 N.2       1 <0>        -0.3079
     27 C17        12.0208   -0.8361    1.2478 C.1       1 <0>         0.3255
     28 N8         11.6291   -1.8805    1.4634 N.1       1 <0>        -0.4835
     29 O2         13.0028    4.9204   -0.0340 O.3       1 <0>        -0.6399
     30 H1         -0.9550    1.8878    0.0258 H         1 <0>         0.1421
     31 H2          1.1895    3.1216    0.0071 H         1 <0>         0.1467
     32 H3         -0.8287   -0.6941    0.0065 H         1 <0>         0.1909
     33 H4          5.8024   -0.5041    1.2454 H         1 <0>         0.1176
     34 H5          4.0299   -0.6210    1.1323 H         1 <0>         0.1082
     35 H6          4.2108   -1.0007   -1.3114 H         1 <0>         0.1025
     36 H7          5.9834   -0.8837   -1.1983 H         1 <0>         0.1132
     37 H8          5.3125   -3.2938   -2.2005 H         1 <0>         0.4035
     38 H9          5.3179   -4.5030   -1.0341 H         1 <0>         0.4055
     39 H10         8.2405    3.4934   -0.9926 H         1 <0>         0.1201
     40 H11         8.1052    3.9093    0.7328 H         1 <0>         0.1201
     41 H12        10.4056    5.0340   -0.2660 H         1 <0>         0.1461
     42 H13        14.7087    0.2553    1.2025 H         1 <0>         0.1907
@<TRIPOS>BOND
     1    1    5 2
     2    1    2 1
     3    1   30 1
     4    2    3 2
     5    2   31 1
     6    3    4 1
     7    3    6 1
     8    4    5 1
     9    5   32 1
    10    6   10 1
    11    6    7 2
    12    7    8 1
    13    8    9 2
    14    9   10 1
    15    9   16 1
    16   10   11 1
    17   11   12 1
    18   11   33 1
    19   11   34 1
    20   12   13 1
    21   12   35 1
    22   12   36 1
    23   13   14 2
    24   13   15 am
    25   15   37 1
    26   15   38 1
    27   16   17 1
    28   17   18 1
    29   17   39 1
    30   17   40 1
    31   18   23 2
    32   18   19 1
    33   19   20 2
    34   19   41 1
    35   20   21 1
    36   20   29 1
    37   21   26 1
    38   21   22 1
    39   22   23 1
    40   22   24 2
    41   24   25 1
    42   24   27 1
    43   25   26 2
    44   25   42 1
    45   27   28 3
@<TRIPOS>MOLECULE
ZINC16034014
   51    55     0     0     0
SMALL
USER_CHARGES

@<TRIPOS>ATOM
      1 C1         -0.0167    1.3782    0.0096 C.ar      1 <0>        -0.0644
      2 C2          1.1703    2.0860    0.0021 C.ar      1 <0>        -0.1556
      3 C3          2.3786    1.4101   -0.0131 C.ar      1 <0>         0.1064
      4 C4          2.3962    0.0256   -0.0207 C.ar      1 <0>        -0.1580
      5 C5          1.2079   -0.6800   -0.0132 C.ar      1 <0>        -0.0670
      6 C6          0.0021   -0.0041    0.0020 C.ar      1 <0>        -0.1280
      7 C7         -1.2930   -0.7747    0.0103 C.3       1 <0>         0.1442
      8 N1         -1.7258   -1.0170   -1.3682 N.am      1 <0>        -0.5579
      9 C8         -2.5104   -0.1667   -2.0402 C.2       1 <0>         0.5362
     10 O1         -2.9451    0.8780   -1.6053 O.2       1 <0>        -0.4584
     11 C9         -2.7702   -0.7113   -3.4268 C.3       1 <0>        -0.1201
     12 H1         -2.4577   -0.0254   -4.2141 H         1 <0>         0.1502
     13 C10        -4.2564   -1.1128   -3.5418 C.3       1 <0>         0.0808
     14 H2         -4.7117   -1.1691   -2.5531 H         1 <0>         0.0695
     15 N2         -4.2405   -2.4550   -4.1813 N.3       1 <0>        -0.6047
     16 C11        -3.0781   -3.1306   -3.5753 C.3       1 <0>         0.1198
     17 C12        -1.9780   -2.0485   -3.4402 C.3       1 <0>        -0.1013
     18 H3         -1.2355   -2.0910   -4.2370 H         1 <0>         0.1515
     19 C13        -1.3642   -2.1038   -2.0596 C.2       1 <0>         0.5351
     20 O2         -0.6560   -2.9952   -1.6432 O.2       1 <0>        -0.4736
     21 C14        -2.6099   -4.2818   -4.4197 C.ar      1 <0>        -0.0907
     22 C15        -2.1580   -4.3832   -5.7165 C.ar      1 <0>        -0.0727
     23 C16        -1.7904   -5.6174   -6.2277 C.ar      1 <0>         0.0782
     24 C17        -1.8784   -6.7463   -5.4302 C.ar      1 <0>        -0.1110
     25 C18        -2.3293   -6.6468   -4.1305 C.ar      1 <0>        -0.1109
     26 C19        -2.7017   -5.4098   -3.6099 C.ar      1 <0>         0.1411
     27 N3         -3.1820   -5.0586   -2.3452 N.am      1 <0>        -0.6502
     28 C20        -3.4277   -3.7380   -2.2443 C.2       1 <0>         0.5047
     29 O3         -3.8488   -3.1522   -1.2693 O.2       1 <0>        -0.4799
     30 F1         -1.3479   -5.7194   -7.5001 F         1 <0>        -0.1339
     31 C21        -5.0118   -0.1118   -4.4184 C.3       1 <0>        -0.0763
     32 C22        -6.5025   -0.4566   -4.4176 C.3       1 <0>        -0.1827
     33 C23        -7.2466    0.5292   -5.2810 C.2       1 <0>         0.4914
     34 O4         -6.6407    1.4246   -5.8448 O.co2     1 <0>        -0.6972
     35 O5         -8.4543    0.4315   -5.4158 O.co2     1 <0>        -0.7076
     36 F2          3.5396    2.1009   -0.0209 F         1 <0>        -0.1389
     37 H4         -0.9592    1.9052    0.0260 H         1 <0>         0.1406
     38 H5          1.1554    3.1659    0.0077 H         1 <0>         0.1389
     39 H6          3.3381   -0.5027   -0.0329 H         1 <0>         0.1371
     40 H7          1.2213   -1.7599   -0.0195 H         1 <0>         0.1369
     41 H8         -1.1453   -1.7280    0.5176 H         1 <0>         0.1029
     42 H9         -2.0553   -0.1984    0.5345 H         1 <0>         0.1068
     43 H10        -5.0931   -2.9583   -3.9868 H         1 <0>         0.3552
     44 H11        -2.0905   -3.5007   -6.3353 H         1 <0>         0.1500
     45 H12        -1.5923   -7.7088   -5.8277 H         1 <0>         0.1450
     46 H13        -2.3945   -7.5315   -3.5144 H         1 <0>         0.1380
     47 H14        -3.3223   -5.6921   -1.6241 H         1 <0>         0.4159
     48 H15        -4.8715    0.8947   -4.0243 H         1 <0>         0.0758
     49 H16        -4.6284   -0.1597   -5.4376 H         1 <0>         0.0783
     50 H17        -6.6428   -1.4631   -4.8118 H         1 <0>         0.0580
     51 H18        -6.8859   -0.4088   -3.3984 H         1 <0>         0.0524
@<TRIPOS>BOND
     1    1    6 ar
     2    1    2 ar
     3    1   37 1
     4    2    3 ar
     5    2   38 1
     6    3    4 ar
     7    3   36 1
     8    4    5 ar
     9    4   39 1
    10    5    6 ar
    11    5   40 1
    12    6    7 1
    13    7    8 1
    14    7   41 1
    15    7   42 1
    16    8   19 am
    17    8    9 am
    18    9   10 2
    19    9   11 1
    20   11   12 1
    21   11   17 1
    22   11   13 1
    23   13   14 1
    24   13   15 1
    25   13   31 1
    26   15   16 1
    27   15   43 1
    28   16   28 1
    29   16   17 1
    30   16   21 1
    31   17   18 1
    32   17   19 1
    33   19   20 2
    34   21   26 ar
    35   21   22 ar
    36   22   23 ar
    37   22   44 1
    38   23   24 ar
    39   23   30 1
    40   24   25 ar
    41   24   45 1
    42   25   26 ar
    43   25   46 1
    44   26   27 1
    45   27   28 am
    46   27   47 1
    47   28   29 2
    48   31   32 1
    49   31   48 1
    50   31   49 1
    51   32   33 1
    52   32   50 1
    53   32   51 1
    54   33   34 2
    55   33   35 1
@<TRIPOS>MOLECULE
ZINC39791945
   46    49     0     0     0
SMALL
USER_CHARGES

@<TRIPOS>ATOM
      1 C1         -0.0157    1.3058    0.0092 C.2       1 <0>        -0.1945
      2 C2          0.0021   -0.0041    0.0020 C.2       1 <0>        -0.1371
      3 C3         -1.2926   -0.7753    0.0102 C.3       1 <0>         0.1476
      4 N1         -1.3176   -1.6997   -1.1260 N.pl3     1 <0>        -0.4802
      5 C4         -1.7895   -1.4484   -2.3847 C.2       1 <0>         0.1292
      6 N2         -1.6241   -2.5347   -3.0850 N.2       1 <0>        -0.2863
      7 N3         -1.0840   -3.4487   -2.3606 N.2       1 <0>        -0.3442
      8 C5         -0.8691   -2.9891   -1.1497 C.2       1 <0>         0.3778
      9 S1         -0.1425   -3.8705    0.1918 S.3       1 <0>        -0.8184
     10 C6         -2.3902   -0.1549   -2.8716 C.3       1 <0>         0.0315
     11 C7         -1.3015    0.7267   -3.4272 C.2       1 <0>         0.2045
     12 N4         -0.1067    0.3388   -3.4386 N.2       1 <0>        -0.4876
     13 C8          0.9579    1.2043   -3.9859 C.3       1 <0>         0.3784
     14 H1          1.2671    0.8698   -4.9761 H         1 <0>         0.1403
     15 S2          0.0718    2.8222   -4.0747 S.3       1 <0>        -0.3446
     16 C9         -1.6290    2.1022   -3.9914 C.3       1 <0>        -0.0709
     17 N5          2.1024    1.2761   -3.0742 N.am      1 <0>        -0.6887
     18 C10         3.2831    1.7570   -3.5113 C.2       1 <0>         0.5704
     19 O1          3.3984    2.1313   -4.6624 O.2       1 <0>        -0.5194
     20 C11         4.4362    1.8293   -2.5928 C.ar      1 <0>        -0.1241
     21 C12         4.3060    1.3940   -1.2715 C.ar      1 <0>        -0.0664
     22 C13         5.3823    1.4613   -0.4133 C.ar      1 <0>        -0.1260
     23 C14         6.5971    1.9622   -0.8609 C.ar      1 <0>         0.1228
     24 C15         6.7336    2.3993   -2.1804 C.ar      1 <0>         0.0672
     25 C16         5.6611    2.3281   -3.0455 C.ar      1 <0>        -0.0415
     26 O2          7.9303    2.8901   -2.6019 O.3       1 <0>        -0.2967
     27 C17         8.7141    3.5905   -1.6323 C.3       1 <0>         0.0497
     28 C18         8.7520    2.8019   -0.3480 C.2       1 <0>         0.4915
     29 O3          9.7277    2.8556    0.3705 O.2       1 <0>        -0.5062
     30 N6          7.6960    2.0351   -0.0004 N.am      1 <0>        -0.6574
     31 H2          0.9122    1.8585    0.0033 H         1 <0>         0.0943
     32 H3         -0.9582    1.8330    0.0166 H         1 <0>         0.0942
     33 H4          0.9446   -0.5313   -0.0098 H         1 <0>         0.1133
     34 H5         -1.3737   -1.3393    0.9394 H         1 <0>         0.1064
     35 H6         -2.1295   -0.0812   -0.0676 H         1 <0>         0.0785
     36 H7         -3.1214   -0.3649   -3.6521 H         1 <0>         0.1203
     37 H8         -2.8807    0.3531   -2.0413 H         1 <0>         0.1033
     38 H9         -2.0788    2.0276   -4.9814 H         1 <0>         0.1234
     39 H10        -2.2654    2.6683   -3.3112 H         1 <0>         0.1270
     40 H11         2.0104    0.9774   -2.1559 H         1 <0>         0.4096
     41 H12         3.3611    1.0048   -0.9222 H         1 <0>         0.1366
     42 H13         5.2804    1.1246    0.6078 H         1 <0>         0.1450
     43 H14         5.7663    2.6607   -4.0676 H         1 <0>         0.1557
     44 H15         9.7286    3.7187   -2.0096 H         1 <0>         0.1490
     45 H16         8.2706    4.5684   -1.4448 H         1 <0>         0.1029
     46 H17         7.7001    1.5420    0.8349 H         1 <0>         0.4198
@<TRIPOS>BOND
     1    1    2 2
     2    1   31 1
     3    1   32 1
     4    2    3 1
     5    2   33 1
     6    3   34 1
     7    3   35 1
     8    3    4 1
     9    4    8 1
    10    4    5 1
    11    5   10 1
    12    5    6 2
    13    6    7 1
    14    7    8 2
    15    8    9 1
    16   10   11 1
    17   10   36 1
    18   10   37 1
    19   11   16 1
    20   11   12 2
    21   12   13 1
    22   13   14 1
    23   13   15 1
    24   13   17 1
    25   15   16 1
    26   16   38 1
    27   16   39 1
    28   17   18 am
    29   17   40 1
    30   18   19 2
    31   18   20 1
    32   20   25 ar
    33   20   21 ar
    34   21   22 ar
    35   21   41 1
    36   22   23 ar
    37   22   42 1
    38   23   30 1
    39   23   24 ar
    40   24   25 ar
    41   24   26 1
    42   25   43 1
    43   26   27 1
    44   27   28 1
    45   27   44 1
    46   27   45 1
    47   28   29 2
    48   28   30 am
    49   30   46 1
@<TRIPOS>MOLECULE
ZINC12235980
   47    49     0     0     0
SMALL
USER_CHARGES
N-(3-chloro-4-methoxy-phenyl)-1-[(3S)-1,1-dioxothiolan-3-yl]-3,5-dimethyl-pyrazole-4-sulfonamide
@<TRIPOS>ATOM
      1 C1          1.3645    6.5537   -2.8167 C.3       1 <0>        -0.1102
      2 C2          1.4471    5.4707   -1.7720 C.2       1 <0>         0.1728
      3 C3          1.7494    5.6575   -0.4192 C.2       1 <0>        -0.8180
      4 C4          1.7250    4.4464    0.1840 C.2       1 <0>         0.2258
      5 N1          1.4181    3.5259   -0.7539 N.pl3     1 <0>        -0.3494
      6 N2          1.2538    4.1927   -1.9749 N.2       1 <0>        -0.2856
      7 C5          1.2864    2.0834   -0.5350 C.3       1 <0>         0.1513
      8 H1          1.4860    1.8503    0.5109 H         1 <0>         0.1305
      9 C6         -0.1352    1.6295   -0.9061 C.3       1 <0>        -0.1385
     10 C7         -0.1917    0.0849   -0.9871 C.3       1 <0>        -0.5736
     11 S1          1.5317   -0.3585   -1.4515 S.o2      1 <0>         2.3786
     12 O1          2.1077   -1.1310   -0.4072 O.2       1 <0>        -0.9239
     13 O2          1.5371   -0.8637   -2.7797 O.2       1 <0>        -0.9215
     14 C8          2.2913    1.3201   -1.4444 C.3       1 <0>        -0.5960
     15 C9          1.9930    4.1744    1.6418 C.3       1 <0>        -0.1476
     16 S2          2.1000    7.1976    0.3616 S.o2      1 <0>         2.7238
     17 O3          1.3506    8.1851   -0.3330 O.2       1 <0>        -0.9464
     18 O4          1.9664    6.9837    1.7601 O.2       1 <0>        -0.9540
     19 N3          3.6977    7.5344    0.0849 N.pl3     1 <0>        -1.0534
     20 C10         4.6880    6.6685    0.5620 C.ar      1 <0>         0.1215
     21 C11         4.6240    6.1900    1.8642 C.ar      1 <0>        -0.1078
     22 C12         5.5988    5.3311    2.3330 C.ar      1 <0>        -0.1776
     23 C13         6.6475    4.9545    1.5075 C.ar      1 <0>         0.1323
     24 C14         6.7158    5.4365    0.2077 C.ar      1 <0>        -0.0548
     25 C15         5.7381    6.2918   -0.2644 C.ar      1 <0>        -0.0819
     26 Cl1         8.0289    4.9645   -0.8251 Cl        1 <0>        -0.0466
     27 O5          7.6098    4.1128    1.9719 O.3       1 <0>        -0.3031
     28 C16         7.4766    3.6555    3.3192 C.3       1 <0>         0.0229
     29 H2          2.3439    6.6919   -3.2749 H         1 <0>         0.0881
     30 H3          0.6429    6.2665   -3.5814 H         1 <0>         0.0870
     31 H4          1.0472    7.4859   -2.3494 H         1 <0>         0.1081
     32 H5         -0.4096    2.0528   -1.8723 H         1 <0>         0.1059
     33 H6         -0.8359    1.9780   -0.1474 H         1 <0>         0.1054
     34 H7         -0.4537   -0.3435   -0.0196 H         1 <0>         0.1468
     35 H8         -0.8941   -0.2363   -1.7562 H         1 <0>         0.1516
     36 H9          3.2871    1.3003   -1.0015 H         1 <0>         0.1499
     37 H10         2.3175    1.7452   -2.4477 H         1 <0>         0.1561
     38 H11         3.0568    3.9861    1.7867 H         1 <0>         0.0992
     39 H12         1.6930    5.0390    2.2339 H         1 <0>         0.1326
     40 H13         1.4230    3.3012    1.9592 H         1 <0>         0.0856
     41 H14         3.9470    8.3318   -0.4078 H         1 <0>         0.4287
     42 H15         3.8099    6.4865    2.5090 H         1 <0>         0.1666
     43 H16         5.5463    4.9557    3.3443 H         1 <0>         0.1472
     44 H17         5.7909    6.6667   -1.2759 H         1 <0>         0.1465
     45 H18         7.4840    4.5103    3.9954 H         1 <0>         0.0605
     46 H19         6.5367    3.1143    3.4279 H         1 <0>         0.0591
     47 H20         8.3075    2.9930    3.5618 H         1 <0>         0.1056
@<TRIPOS>BOND
     1    1    2 1
     2    1   29 1
     3    1   30 1
     4    1   31 1
     5    2    6 2
     6    2    3 1
     7    3    4 2
     8    3   16 1
     9    4    5 1
    10    4   15 1
    11    5    6 1
    12    5    7 1
    13    7    8 1
    14    7   14 1
    15    7    9 1
    16    9   10 1
    17    9   32 1
    18    9   33 1
    19   10   11 1
    20   10   34 1
    21   10   35 1
    22   11   12 2
    23   11   13 2
    24   11   14 1
    25   14   36 1
    26   14   37 1
    27   15   38 1
    28   15   39 1
    29   15   40 1
    30   16   17 2
    31   16   18 2
    32   16   19 1
    33   19   20 1
    34   19   41 1
    35   20   25 ar
    36   20   21 ar
    37   21   22 ar
    38   21   42 1
    39   22   23 ar
    40   22   43 1
    41   23   24 ar
    42   23   27 1
    43   24   25 ar
    44   24   26 1
    45   25   44 1
    46   27   28 1
    47   28   45 1
    48   28   46 1
    49   28   47 1
@<TRIPOS>MOLECULE
ZINC03344694
   54    58     0     0     0
SMALL
USER_CHARGES
(5R)-2-[2-[1-(2,3-dihydro-1,4-benzodioxin-6-yl)-2,5-dimethyl-pyrrol-3-yl]-2-oxo-ethyl]-7-thia-2,4-diazaspiro[4.4]nonane-1,3-dione
@<TRIPOS>ATOM
      1 C1         -3.2771   -1.8235    2.3132 C.3       1 <0>        -0.0896
      2 C2         -4.0295   -1.5596    1.0344 C.2       1 <0>         0.0206
      3 C3         -5.2224   -2.0857    0.7100 C.2       1 <0>        -0.1485
      4 C4         -5.5640   -1.5532   -0.6160 C.2       1 <0>        -0.2634
      5 C5         -4.5151   -0.7266   -0.9743 C.2       1 <0>         0.1297
      6 N1         -3.6066   -0.7472    0.0197 N.pl3     1 <0>        -0.3878
      7 C6         -2.4002   -0.0318    0.0167 C.ar      1 <0>         0.1089
      8 C7         -2.4160    1.3564    0.0265 C.ar      1 <0>        -0.1018
      9 C8         -1.2284    2.0615    0.0190 C.ar      1 <0>        -0.0988
     10 C9         -0.0168    1.3859    0.0097 C.ar      1 <0>         0.0649
     11 C10         0.0021   -0.0041    0.0020 C.ar      1 <0>         0.0652
     12 C11        -1.1904   -0.7111    0.0043 C.ar      1 <0>        -0.1009
     13 O1          1.1808   -0.6848   -0.0068 O.3       1 <0>        -0.3026
     14 C12         2.3471    0.0532   -0.3875 C.3       1 <0>         0.0194
     15 C13         2.3351    1.3912    0.3642 C.3       1 <0>         0.0188
     16 O2          1.1439    2.0980    0.0024 O.3       1 <0>        -0.3020
     17 C14        -4.4056    0.0581   -2.2563 C.3       1 <0>        -0.1000
     18 C15        -6.7707   -1.8352   -1.3957 C.2       1 <0>         0.4179
     19 O3         -6.9234   -1.3217   -2.4846 O.2       1 <0>        -0.4598
     20 C16        -7.8232   -2.7632   -0.8460 C.3       1 <0>         0.0946
     21 N2         -8.9218   -2.8801   -1.8081 N.am      1 <0>        -0.5666
     22 C17       -10.0051   -2.0779   -1.8219 C.2       1 <0>         0.5398
     23 O4        -10.2455   -1.1584   -1.0692 O.2       1 <0>        -0.4471
     24 C18       -10.8581   -2.5635   -2.9754 C.3       1 <0>         0.1198
     25 C19       -11.0026   -1.4652   -4.0263 C.3       1 <0>        -0.1272
     26 C20       -12.3214   -1.6566   -4.8269 C.3       1 <0>        -0.0613
     27 S1        -13.4420   -2.1772   -3.4544 S.3       1 <0>        -0.2683
     28 C21       -12.2039   -3.0766   -2.4302 C.3       1 <0>        -0.0680
     29 N3        -10.0908   -3.6929   -3.5254 N.am      1 <0>        -0.7186
     30 C22        -8.9768   -3.8001   -2.7783 C.2       1 <0>         0.7087
     31 O5         -8.1172   -4.6390   -2.9634 O.2       1 <0>        -0.5307
     32 H1         -3.5677   -1.0887    3.0640 H         1 <0>         0.0747
     33 H2         -3.5135   -2.8245    2.6739 H         1 <0>         0.0851
     34 H3         -2.2058   -1.7481    2.1267 H         1 <0>         0.0662
     35 H4         -5.8130   -2.7659    1.3058 H         1 <0>         0.1540
     36 H5         -3.3575    1.8853    0.0370 H         1 <0>         0.1416
     37 H6         -1.2430    3.1414    0.0273 H         1 <0>         0.1480
     38 H7         -1.1777   -1.7910   -0.0031 H         1 <0>         0.1435
     39 H8          3.2416   -0.5099   -0.1214 H         1 <0>         0.1280
     40 H9          2.3330    0.2345   -1.4622 H         1 <0>         0.0819
     41 H10         2.3424    1.2092    1.4389 H         1 <0>         0.0821
     42 H11         3.2100    1.9779    0.0843 H         1 <0>         0.1279
     43 H12        -3.9080   -0.5491   -3.0125 H         1 <0>         0.0817
     44 H13        -5.4030    0.3265   -2.6043 H         1 <0>         0.0998
     45 H14        -3.8264    0.9644   -2.0792 H         1 <0>         0.0698
     46 H15        -7.4220   -3.6653   -0.6869 H         1 <0>         0.1163
     47 H16        -8.2043   -2.3642    0.0940 H         1 <0>         0.1303
     48 H17       -11.0180   -0.4934   -3.5327 H         1 <0>         0.1047
     49 H18       -10.1555   -1.5073   -4.7110 H         1 <0>         0.1023
     50 H19       -12.2206   -2.4412   -5.5768 H         1 <0>         0.0991
     51 H20       -12.6524   -0.7206   -5.2768 H         1 <0>         0.1217
     52 H21       -12.2929   -4.1532   -2.5761 H         1 <0>         0.1152
     53 H22       -12.3158   -2.8193   -1.3770 H         1 <0>         0.1181
     54 H23       -10.3394   -4.2505   -4.2792 H         1 <0>         0.4427
@<TRIPOS>BOND
     1    1    2 1
     2    1   32 1
     3    1   33 1
     4    1   34 1
     5    2    6 1
     6    2    3 2
     7    3    4 1
     8    3   35 1
     9    4    5 2
    10    4   18 1
    11    5    6 1
    12    5   17 1
    13    6    7 1
    14    7   12 ar
    15    7    8 ar
    16    8    9 ar
    17    8   36 1
    18    9   10 ar
    19    9   37 1
    20   10   16 1
    21   10   11 ar
    22   11   12 ar
    23   11   13 1
    24   12   38 1
    25   13   14 1
    26   14   15 1
    27   14   39 1
    28   14   40 1
    29   15   16 1
    30   15   41 1
    31   15   42 1
    32   17   43 1
    33   17   44 1
    34   17   45 1
    35   18   19 2
    36   18   20 1
    37   20   21 1
    38   20   46 1
    39   20   47 1
    40   21   30 am
    41   21   22 am
    42   22   23 2
    43   22   24 1
    44   24   28 1
    45   24   25 1
    46   24   29 1
    47   25   26 1
    48   25   48 1
    49   25   49 1
    50   26   27 1
    51   26   50 1
    52   26   51 1
    53   27   28 1
    54   28   52 1
    55   28   53 1
    56   29   30 am
    57   29   54 1
    58   30   31 2
@<TRIPOS>MOLECULE
ZINC28025174
   50    52     0     0     0
SMALL
USER_CHARGES
(2S)-2-[2-[4-(5-bromo-2-pyridyl)piperazin-1-yl]-2-oxo-ethyl]sulfanyl-N-(5-methylisoxazol-3-yl)propanamide
@<TRIPOS>ATOM
      1 C1          7.9987   -5.0743    0.4092 C.3       1 <0>        -0.0791
      2 C2          6.5036   -5.1949    0.5539 C.2       1 <0>        -0.0177
      3 C3          5.5869   -4.2335    0.2997 C.2       1 <0>        -0.2311
      4 C4          4.3455   -4.8574    0.5942 C.2       1 <0>         0.2509
      5 N1          4.6308   -6.0726    0.9825 N.2       1 <0>        -0.3903
      6 O1          5.8225   -6.2760    0.9604 O.3       1 <0>         0.0959
      7 N2          3.0767   -4.2862    0.4947 N.am      1 <0>        -0.6422
      8 C5          2.9425   -3.0104    0.0816 C.2       1 <0>         0.5425
      9 O2          3.9249   -2.3589   -0.2036 O.2       1 <0>        -0.4912
     10 C6          1.5718   -2.3933   -0.0258 C.3       1 <0>        -0.1153
     11 H1          0.9970   -2.8889    0.7704 H         1 <0>         0.1134
     12 C7          0.9101   -2.8447   -1.3293 C.3       1 <0>        -0.1508
     13 S1          1.7203   -0.5854   -0.0175 S.3       1 <0>        -0.0696
     14 C8          0.0021   -0.0041    0.0020 C.3       1 <0>        -0.1541
     15 C9         -0.0184    1.5028    0.0103 C.2       1 <0>         0.5368
     16 O3          1.0236    2.1234    0.0037 O.2       1 <0>        -0.5107
     17 N3         -1.1946    2.1607    0.0195 N.am      1 <0>        -0.6147
     18 C10        -2.4697    1.4277    0.0154 C.3       1 <0>         0.1081
     19 C11        -3.3402    1.9684    1.1609 C.3       1 <0>         0.0414
     20 N4         -3.4622    3.4264    1.0299 N.pl3     1 <0>        -0.4737
     21 C12        -2.1562    4.0849    1.1667 C.3       1 <0>         0.0511
     22 C13        -1.2371    3.6309    0.0277 C.3       1 <0>         0.1120
     23 C14        -4.3750    3.9345    1.9475 C.ar      1 <0>         0.3255
     24 C15        -5.6754    3.4405    1.9719 C.ar      1 <0>        -0.1806
     25 C16        -6.5717    3.9507    2.8933 C.ar      1 <0>        -0.0227
     26 C17        -6.1388    4.9501    3.7562 C.ar      1 <0>        -0.1754
     27 C18        -4.8348    5.3972    3.6727 C.ar      1 <0>         0.1645
     28 N5         -4.0002    4.8876    2.7864 N.ar      1 <0>        -0.5106
     29 Br1        -7.3225    5.6899    5.0318 Br        1 <0>        -0.0313
     30 H2          8.2526   -4.0639    0.0561 H         1 <0>         0.0956
     31 H3          8.3579   -5.8178   -0.3176 H         1 <0>         0.0889
     32 H4          8.4770   -5.2532    1.3835 H         1 <0>         0.0890
     33 H5          5.7589   -3.2253   -0.0470 H         1 <0>         0.1896
     34 H6          2.1857   -4.8771    0.7534 H         1 <0>         0.4448
     35 H7         -0.0904   -2.3943   -1.4077 H         1 <0>         0.0738
     36 H8          0.8201   -3.9410   -1.3343 H         1 <0>         0.0714
     37 H9          1.5249   -2.5233   -2.1830 H         1 <0>         0.0793
     38 H10        -0.5199   -0.3730   -0.8932 H         1 <0>         0.1159
     39 H11        -0.5029   -0.3826    0.9030 H         1 <0>         0.1133
     40 H12        -2.9772    1.5802   -0.9486 H         1 <0>         0.0883
     41 H13        -2.2764    0.3548    0.1623 H         1 <0>         0.0965
     42 H14        -4.3384    1.5090    1.1111 H         1 <0>         0.1018
     43 H15        -2.8713    1.7229    2.1252 H         1 <0>         0.0570
     44 H16        -2.2889    5.1758    1.1196 H         1 <0>         0.1056
     45 H17        -1.7071    3.8115    2.1329 H         1 <0>         0.0591
     46 H18        -0.2225    4.0262    0.1840 H         1 <0>         0.1067
     47 H19        -1.6269    3.9919   -0.9355 H         1 <0>         0.0810
     48 H20        -5.9796    2.6660    1.2834 H         1 <0>         0.1465
     49 H21        -7.5865    3.5839    2.9381 H         1 <0>         0.1478
     50 H22        -4.4936    6.1736    4.3414 H         1 <0>         0.1670
@<TRIPOS>BOND
     1    1    2 1
     2    1   30 1
     3    1   31 1
     4    1   32 1
     5    2    6 1
     6    2    3 2
     7    3    4 1
     8    3   33 1
     9    4    5 2
    10    4    7 1
    11    5    6 1
    12    7    8 am
    13    7   34 1
    14    8    9 2
    15    8   10 1
    16   10   11 1
    17   10   12 1
    18   10   13 1
    19   12   35 1
    20   12   36 1
    21   12   37 1
    22   13   14 1
    23   14   15 1
    24   14   38 1
    25   14   39 1
    26   15   16 2
    27   15   17 am
    28   17   22 1
    29   17   18 1
    30   18   19 1
    31   18   40 1
    32   18   41 1
    33   19   20 1
    34   19   42 1
    35   19   43 1
    36   20   21 1
    37   20   23 1
    38   21   22 1
    39   21   44 1
    40   21   45 1
    41   22   46 1
    42   22   47 1
    43   23   28 ar
    44   23   24 ar
    45   24   25 ar
    46   24   48 1
    47   25   26 ar
    48   25   49 1
    49   26   27 ar
    50   26   29 1
    51   27   28 ar
    52   27   50 1
@<TRIPOS>MOLECULE
ZINC17747781
   60    63     0     0     0
SMALL
USER_CHARGES

@<TRIPOS>ATOM
      1 C1         -1.2246    3.5358    0.5677 C.3       1 <0>        -0.1455
      2 C2         -0.9294    2.0375    0.6614 C.3       1 <0>        -0.0604
      3 C3         -0.2196    1.7392    1.9836 C.3       1 <0>        -0.1453
      4 C4         -2.2225    1.2660    0.6003 C.ar      1 <0>        -0.0637
      5 C5         -3.2001    1.4788    1.5542 C.ar      1 <0>        -0.1125
      6 C6         -4.3863    0.7712    1.4981 C.ar      1 <0>        -0.0926
      7 C7         -4.5950   -0.1490    0.4879 C.ar      1 <0>        -0.1040
      8 C8         -3.6178   -0.3613   -0.4665 C.ar      1 <0>        -0.1038
      9 C9         -2.4334    0.3495   -0.4129 C.ar      1 <0>        -0.1126
     10 C10        -5.8877   -0.9212    0.4274 C.3       1 <0>         0.1716
     11 C11        -6.2911   -1.1740   -1.0118 C.2       1 <0>         0.5436
     12 O1         -5.6744   -1.8018   -1.8456 O.2       1 <0>        -0.4552
     13 N1         -7.4782   -0.5563   -1.1713 N.am      1 <0>        -0.5615
     14 C12        -7.8768    0.0453   -0.0447 C.2       1 <0>         0.7119
     15 O2         -8.9162    0.6667    0.0580 O.2       1 <0>        -0.5355
     16 N2         -6.9987   -0.1148    0.9618 N.am      1 <0>        -0.7141
     17 C13        -8.2379   -0.5444   -2.4238 C.3       1 <0>         0.1001
     18 C14        -9.1698   -1.7283   -2.4574 C.2       1 <0>         0.5093
     19 O3         -9.2088   -2.4960   -1.5194 O.2       1 <0>        -0.5109
     20 N3         -9.9597   -1.9339   -3.5299 N.am      1 <0>        -0.5717
     21 C15       -10.9439   -3.0189   -3.5175 C.3       1 <0>         0.1469
     22 H1        -11.4974   -3.0161   -4.4565 H         1 <0>         0.1172
     23 C16       -10.2179   -4.3649   -3.3569 C.3       1 <0>        -0.1503
     24 C17       -11.2810   -5.4531   -3.0332 C.3       1 <0>        -0.5710
     25 S1        -12.3653   -4.5283   -1.8653 S.o2      1 <0>         2.3750
     26 O4        -13.7236   -4.7711   -2.2047 O.2       1 <0>        -0.9363
     27 O5        -11.9231   -4.7674   -0.5361 O.2       1 <0>        -0.9228
     28 C18       -11.9271   -2.8075   -2.3410 C.3       1 <0>        -0.5997
     29 C19        -9.8342   -1.0722   -4.7081 C.3       1 <0>         0.0564
     30 C20       -10.9557   -1.1287   -5.7473 C.3       1 <0>        -0.1830
     31 C21        -9.5930   -1.7516   -6.0576 C.3       1 <0>        -0.1862
     32 C22        -5.7619   -2.2393    1.1941 C.3       1 <0>        -0.1448
     33 H2         -0.2893    4.0938    0.6119 H         1 <0>         0.0603
     34 H3         -1.7303    3.7483   -0.3743 H         1 <0>         0.0561
     35 H4         -1.8644    3.8327    1.3986 H         1 <0>         0.0573
     36 H5         -0.2896    1.7405   -0.1696 H         1 <0>         0.0795
     37 H6         -0.0093    0.6718    2.0503 H         1 <0>         0.0570
     38 H7          0.7157    2.2972    2.0278 H         1 <0>         0.0601
     39 H8         -0.8595    2.0361    2.8145 H         1 <0>         0.0573
     40 H9         -3.0370    2.1978    2.3434 H         1 <0>         0.1265
     41 H10        -5.1497    0.9370    2.2438 H         1 <0>         0.1221
     42 H11        -3.7808   -1.0804   -1.2556 H         1 <0>         0.1390
     43 H12        -1.6714    0.1864   -1.1607 H         1 <0>         0.1268
     44 H13        -7.0811    0.2327    1.8636 H         1 <0>         0.4415
     45 H14        -8.8178    0.3763   -2.4883 H         1 <0>         0.1318
     46 H15        -7.5494   -0.5999   -3.2670 H         1 <0>         0.1296
     47 H16        -9.7023   -4.6179   -4.2833 H         1 <0>         0.1013
     48 H17        -9.4977   -4.2997   -2.5413 H         1 <0>         0.1109
     49 H18       -11.8278   -5.7487   -3.9286 H         1 <0>         0.1404
     50 H19       -10.8260   -6.3170   -2.5486 H         1 <0>         0.1453
     51 H20       -11.4368   -2.2911   -1.5157 H         1 <0>         0.1510
     52 H21       -12.8112   -2.2612   -2.6695 H         1 <0>         0.1449
     53 H22        -9.3544   -0.1086   -4.5368 H         1 <0>         0.1392
     54 H23       -11.7869   -1.8070   -5.5544 H         1 <0>         0.1040
     55 H24       -11.2140   -0.2021   -6.2599 H         1 <0>         0.1121
     56 H25        -8.9549   -1.2347   -6.7743 H         1 <0>         0.1099
     57 H26        -9.5278   -2.8395   -6.0689 H         1 <0>         0.1011
     58 H27        -5.5225   -2.0316    2.2369 H         1 <0>         0.0834
     59 H28        -6.7050   -2.7830    1.1391 H         1 <0>         0.0770
     60 H29        -4.9687   -2.8423    0.7523 H         1 <0>         0.0863
@<TRIPOS>BOND
     1    1    2 1
     2    1   33 1
     3    1   34 1
     4    1   35 1
     5    2    3 1
     6    2    4 1
     7    2   36 1
     8    3   37 1
     9    3   38 1
    10    3   39 1
    11    4    9 ar
    12    4    5 ar
    13    5    6 ar
    14    5   40 1
    15    6    7 ar
    16    6   41 1
    17    7    8 ar
    18    7   10 1
    19    8    9 ar
    20    8   42 1
    21    9   43 1
    22   10   16 1
    23   10   11 1
    24   10   32 1
    25   11   12 2
    26   11   13 am
    27   13   14 am
    28   13   17 1
    29   14   15 2
    30   14   16 am
    31   16   44 1
    32   17   18 1
    33   17   45 1
    34   17   46 1
    35   18   19 2
    36   18   20 am
    37   20   21 1
    38   20   29 1
    39   21   22 1
    40   21   28 1
    41   21   23 1
    42   23   24 1
    43   23   47 1
    44   23   48 1
    45   24   25 1
    46   24   49 1
    47   24   50 1
    48   25   26 2
    49   25   27 2
    50   25   28 1
    51   28   51 1
    52   28   52 1
    53   29   31 1
    54   29   30 1
    55   29   53 1
    56   30   31 1
    57   30   54 1
    58   30   55 1
    59   31   56 1
    60   31   57 1
    61   32   58 1
    62   32   59 1
    63   32   60 1
