@<TRIPOS>MOLECULE
2AZR-982
 22 23 0 0 0
SMALL
SF_CHARGES


@<TRIPOS>ATOM
1    C        46.4550   12.2720    2.9360  C.2        1 SUBUNIT     -0.0803
2    C        46.4850   11.0190    2.3170  C.2        1 SUBUNIT     -0.1029
3    C        45.8240   10.8500    1.1090  C.2        1 SUBUNIT      0.1875
4    N        45.1360   11.8170    0.4610  N.2        1 SUBUNIT     -0.4935
5    C        45.1370   13.0150    1.0940  C.2        1 SUBUNIT      0.2649
6    C        45.7540   13.3290    2.3110  C.2        1 SUBUNIT     -0.0367
7    S        44.3260   14.3420    0.4060  S.3        1 SUBUNIT     -0.0218
8    C        44.7650   15.3620    1.7120  C.2        1 SUBUNIT     -0.0614
9    C        45.5370   14.7090    2.6630  C.2        1 SUBUNIT      0.1498
10   C        44.3010   16.8600    1.7050  C.2        1 SUBUNIT      0.7842
11   O        43.8000   17.2620    0.6140  O.co2      1 SUBUNIT     -0.8934
12   O        46.0160   15.2980    3.8050  O.3        1 SUBUNIT     -0.3897
13   C        47.2510   16.0130    3.6410  C.3        1 SUBUNIT      0.1802
14   C        47.4750   16.9630    4.8310  C.2        1 SUBUNIT      0.7514
15   O        48.5250   17.6360    4.7770  O.co2      1 SUBUNIT     -0.8755
16   O        44.4540   17.5450    2.7620  O.co2      1 SUBUNIT     -0.8934
17   O        46.6160   16.9760    5.7460  O.co2      1 SUBUNIT     -0.8755
18   H        46.9597   12.4239    3.8741  H          1 SUBUNIT      0.1195
19   H        47.0116   10.1958    2.7674  H          1 SUBUNIT      0.1193
20   H        45.8532    9.8812    0.6418  H          1 SUBUNIT      0.0914
21   H        48.0671   15.2855    3.5805  H          1 SUBUNIT      0.0380
22   H        47.1998   16.5833    2.7077  H          1 SUBUNIT      0.0380
@<TRIPOS>BOND
     1    1    2 2
     2    1    6 1
     3    2    3 1
     4    3    4 2
     5    4    5 1
     6    5    6 2
     7    5    7 1
     8    6    9 1
     9    7    8 1
    10    8    9 2
    11    8   10 1
    12    9   12 1
    13   10   11 2
    14   10   16 1
    15   12   13 1
    16   13   14 1
    17   14   15 2
    18   14   17 1
    19    1   18 1
    20    2   19 1
    21    3   20 1
    22   13   21 1
    23   13   22 1
