@<TRIPOS>MOLECULE
CHEMBL253799
   84    87     0     0     0
SMALL
USER_CHARGES

@<TRIPOS>ATOM
      1 C1         -0.4071    0.9744    0.2437 C.3       1 <0>        -0.1597
      2 C2         -0.2132   -0.5386    0.1251 C.3       1 <0>         0.1834
      3 H1         -1.1864   -1.0286    0.0982 H         1 <0>         0.1005
      4 C3          0.5688   -1.0394    1.3119 C.ar      1 <0>        -0.0911
      5 C4          1.9432   -0.8953    1.3448 C.ar      1 <0>        -0.1172
      6 C5          2.6605   -1.3547    2.4335 C.ar      1 <0>        -0.1168
      7 C6          2.0034   -1.9578    3.4896 C.ar      1 <0>        -0.1190
      8 C7          0.6289   -2.1012    3.4571 C.ar      1 <0>        -0.1114
      9 C8         -0.0889   -1.6379    2.3703 C.ar      1 <0>        -0.1041
     10 N1          0.5204   -0.8418   -1.1063 N.am      1 <0>        -0.7218
     11 C9         -0.1431   -0.9655   -2.2729 C.2       1 <0>         0.5633
     12 O1         -1.3501   -0.8255   -2.3034 O.2       1 <0>        -0.5231
     13 C10         0.5974   -1.2716   -3.5158 C.ar      1 <0>        -0.1404
     14 C11        -0.0884   -1.3939   -4.7240 C.ar      1 <0>         0.0319
     15 C12         0.6090   -1.6818   -5.8949 C.ar      1 <0>        -0.0526
     16 C13         1.9919   -1.8480   -5.8596 C.ar      1 <0>        -0.0162
     17 C14         2.6783   -1.7264   -4.6520 C.ar      1 <0>        -0.1487
     18 C15         1.9814   -1.4322   -3.4809 C.ar      1 <0>        -0.0510
     19 C16         4.1460   -1.9033   -4.6146 C.2       1 <0>         0.5686
     20 O2          4.7541   -2.1548   -5.6365 O.2       1 <0>        -0.5023
     21 N2          4.8094   -1.7857   -3.4473 N.am      1 <0>        -0.7261
     22 C17         6.2634   -1.9609   -3.4102 C.3       1 <0>         0.1279
     23 H2          6.5559   -2.7239   -4.1315 H         1 <0>         0.1103
     24 C18         6.9457   -0.6376   -3.7626 C.3       1 <0>        -0.1020
     25 C19         6.6246   -0.2710   -5.1886 C.ar      1 <0>        -0.0793
     26 C20         7.4423   -0.7058   -6.2149 C.ar      1 <0>        -0.1069
     27 C21         7.1477   -0.3695   -7.5230 C.ar      1 <0>        -0.1111
     28 C22         6.0353    0.4012   -7.8048 C.ar      1 <0>        -0.1101
     29 C23         5.2171    0.8352   -6.7785 C.ar      1 <0>        -0.1078
     30 C24         5.5093    0.4953   -5.4709 C.ar      1 <0>        -0.1046
     31 C25         6.6889   -2.3962   -2.0065 C.3       1 <0>         0.0746
     32 H3          6.1359   -3.2908   -1.7202 H         1 <0>         0.1341
     33 C26         8.1885   -2.6996   -1.9993 C.3       1 <0>        -0.0473
     34 N3          8.5743   -3.2313   -0.6854 N.4       1 <0>        -0.5024
     35 C27        10.0141   -3.5225   -0.6785 C.3       1 <0>         0.0304
     36 C28        10.4099   -4.0680    0.6694 C.2       1 <0>        -0.2443
     37 C29        11.0248   -5.2216    0.7544 C.2       1 <0>        -0.0980
     38 O3          6.4109   -1.3466   -1.0775 O.3       1 <0>        -0.5494
     39 C30        -0.1200   -1.8116   -7.1783 C.ar      1 <0>        -0.0013
     40 C31        -0.0425   -2.9919   -7.9114 C.ar      1 <0>        -0.1149
     41 C32        -0.7228   -3.1090   -9.1069 C.ar      1 <0>        -0.0830
     42 C33        -1.4864   -2.0570   -9.5873 C.ar      1 <0>        -0.1236
     43 C34        -1.5776   -0.8792   -8.8774 C.ar      1 <0>        -0.0705
     44 C35        -0.9008   -0.7430   -7.6615 C.ar      1 <0>        -0.1589
     45 C36        -0.9978    0.5072   -6.8967 C.2       1 <0>         0.3909
     46 O4         -0.3196    0.6649   -5.9036 O.2       1 <0>        -0.4460
     47 C37        -1.9400    1.5942   -7.3460 C.3       1 <0>        -0.2035
     48 H4          0.5662    1.4645    0.2706 H         1 <0>         0.0587
     49 H5         -0.9727    1.3367   -0.6147 H         1 <0>         0.0682
     50 H6         -0.9529    1.2000    1.1599 H         1 <0>         0.0712
     51 H7          2.4567   -0.4240    0.5197 H         1 <0>         0.1166
     52 H8          3.7344   -1.2427    2.4589 H         1 <0>         0.1204
     53 H9          2.5639   -2.3174    4.3399 H         1 <0>         0.1230
     54 H10         0.1155   -2.5727    4.2820 H         1 <0>         0.1270
     55 H11        -1.1631   -1.7465    2.3466 H         1 <0>         0.1273
     56 H12         1.4836   -0.9535   -1.0819 H         1 <0>         0.3941
     57 H13        -1.1604   -1.2658   -4.7518 H         1 <0>         0.1364
     58 H14         2.5322   -2.0715   -6.7676 H         1 <0>         0.1408
     59 H15         2.5133   -1.3331   -2.5462 H         1 <0>         0.1211
     60 H16         4.3241   -1.5849   -2.6317 H         1 <0>         0.4036
     61 H17         6.5853    0.1459   -3.0960 H         1 <0>         0.0820
     62 H18         8.0246   -0.7436   -3.6488 H         1 <0>         0.0793
     63 H19         8.3114   -1.3079   -5.9948 H         1 <0>         0.1116
     64 H20         7.7869   -0.7086   -8.3248 H         1 <0>         0.1195
     65 H21         5.8055    0.6645   -8.8267 H         1 <0>         0.1198
     66 H22         4.3482    1.4376   -6.9987 H         1 <0>         0.1174
     67 H23         4.8680    0.8313   -4.6694 H         1 <0>         0.1101
     68 H24         8.4138   -3.4368   -2.7700 H         1 <0>         0.1473
     69 H25         8.7454   -1.7840   -2.1985 H         1 <0>         0.1419
     70 H26         8.3658   -2.5488    0.0280 H         1 <0>         0.4330
     71 H27        10.2394   -4.2598   -1.4491 H         1 <0>         0.1323
     72 H28        10.5710   -2.6070   -0.8777 H         1 <0>         0.1369
     73 H29        10.1865   -3.5078    1.5654 H         1 <0>         0.1356
     74 H30        11.3084   -5.6124    1.7204 H         1 <0>         0.1241
     75 H31        11.2481   -5.7817   -0.1415 H         1 <0>         0.1123
     76 H32         6.8705   -0.5181   -1.2709 H         1 <0>         0.3919
     77 H33         0.5505   -3.8168   -7.5450 H         1 <0>         0.1316
     78 H34        -0.6591   -4.0270   -9.6722 H         1 <0>         0.1335
     79 H35        -2.0133   -2.1608  -10.5244 H         1 <0>         0.1345
     80 H36        -2.1744   -0.0634   -9.2581 H         1 <0>         0.1398
     81 H37        -2.4598    1.2741   -8.2491 H         1 <0>         0.0841
     82 H38        -2.6677    1.7925   -6.5590 H         1 <0>         0.0978
     83 H39        -1.3742    2.5021   -7.5549 H         1 <0>         0.0961
     84 H40         8.0588   -4.0788   -0.5010 H         1 <0>         0.4297
@<TRIPOS>BOND
     1    1    2 1
     2    1   48 1
     3    1   49 1
     4    1   50 1
     5    2    3 1
     6    2    4 1
     7    2   10 1
     8    4    9 ar
     9    4    5 ar
    10    5    6 ar
    11    5   51 1
    12    6    7 ar
    13    6   52 1
    14    7    8 ar
    15    7   53 1
    16    8    9 ar
    17    8   54 1
    18    9   55 1
    19   10   11 am
    20   10   56 1
    21   11   12 2
    22   11   13 1
    23   13   18 ar
    24   13   14 ar
    25   14   15 ar
    26   14   57 1
    27   15   16 ar
    28   15   39 1
    29   16   17 ar
    30   16   58 1
    31   17   18 ar
    32   17   19 1
    33   18   59 1
    34   19   20 2
    35   19   21 am
    36   21   22 1
    37   21   60 1
    38   22   23 1
    39   22   24 1
    40   22   31 1
    41   24   25 1
    42   24   61 1
    43   24   62 1
    44   25   30 ar
    45   25   26 ar
    46   26   27 ar
    47   26   63 1
    48   27   28 ar
    49   27   64 1
    50   28   29 ar
    51   28   65 1
    52   29   30 ar
    53   29   66 1
    54   30   67 1
    55   31   32 1
    56   31   33 1
    57   31   38 1
    58   33   34 1
    59   33   68 1
    60   33   69 1
    61   34   35 1
    62   34   70 1
    63   34   84 1
    64   35   36 1
    65   35   71 1
    66   35   72 1
    67   36   37 2
    68   36   73 1
    69   37   74 1
    70   37   75 1
    71   38   76 1
    72   39   44 ar
    73   39   40 ar
    74   40   41 ar
    75   40   77 1
    76   41   42 ar
    77   41   78 1
    78   42   43 ar
    79   42   79 1
    80   43   44 ar
    81   43   80 1
    82   44   45 1
    83   45   46 2
    84   45   47 1
    85   47   81 1
    86   47   82 1
    87   47   83 1
@<TRIPOS>MOLECULE
CHEMBL272718
   67    70     0     0     0
SMALL
USER_CHARGES

@<TRIPOS>ATOM
      1 C1         -2.5885   -2.5504    0.7298 C.3       1 <0>        -0.1507
      2 C2         -1.3989   -1.7888    0.1418 C.3       1 <0>        -0.1237
      3 C3         -0.7679   -2.6160   -0.9801 C.3       1 <0>         0.0574
      4 O1          0.3432   -1.9046   -1.5292 O.3       1 <0>        -0.3147
      5 C4          1.0197   -2.5049   -2.5434 C.ar      1 <0>         0.1312
      6 C5          0.6158   -3.7516   -3.0026 C.ar      1 <0>        -0.1998
      7 C6          1.2995   -4.3643   -4.0309 C.ar      1 <0>        -0.0835
      8 C7          2.3994   -3.7292   -4.6113 C.ar      1 <0>        -0.0547
      9 C8          2.8019   -2.4753   -4.1469 C.ar      1 <0>        -0.0590
     10 C9          2.1094   -1.8674   -3.1216 C.ar      1 <0>        -0.1457
     11 C10         3.1355   -4.3823   -5.7135 C.2       1 <0>         0.0815
     12 C11         3.9008   -3.7505   -6.6503 C.2       1 <0>        -0.1773
     13 C12         4.4171   -4.7296   -7.5064 C.2       1 <0>        -0.1498
     14 C13         3.9570   -5.9398   -7.0755 C.2       1 <0>         0.0490
     15 N1          3.1731   -5.7293   -5.9691 N.pl3     1 <0>        -0.4153
     16 C14         2.4892   -6.7674   -5.1939 C.3       1 <0>         0.0727
     17 C15         1.1603   -7.0780   -5.8330 C.2       1 <0>         0.4924
     18 O2          0.8173   -6.4889   -6.8393 O.2       1 <0>        -0.5105
     19 N2          0.3618   -7.9979   -5.2954 N.2       1 <0>        -0.7042
     20 C16        -0.1060   -8.9893   -6.0431 C.2       1 <0>         0.7066
     21 N3         -1.0180   -9.8599   -5.5272 N.pl3     1 <0>        -0.8211
     22 N4          0.3259   -9.1366   -7.3268 N.pl3     1 <0>        -0.7353
     23 C17        -0.2735  -10.1585   -8.1886 C.3       1 <0>         0.1106
     24 C18         0.3865  -10.1134   -9.5681 C.3       1 <0>        -0.1437
     25 C19        -0.2394  -11.1806  -10.4682 C.3       1 <0>         0.2386
     26 O3          0.0720  -12.4873   -9.9564 O.3       1 <0>        -0.3778
     27 C20         0.2523  -13.3123  -11.1325 C.3       1 <0>         0.0166
     28 C21         0.9273  -12.3202  -12.1123 C.3       1 <0>         0.0199
     29 O4          0.2929  -11.0650  -11.7943 O.3       1 <0>        -0.3792
     30 C22         4.2553   -7.2498   -7.6902 C.ar      1 <0>        -0.0051
     31 C23         4.7077   -8.3085   -6.9003 C.ar      1 <0>        -0.1098
     32 C24         4.9840   -9.5290   -7.4804 C.ar      1 <0>        -0.1112
     33 C25         4.8143   -9.7061   -8.8424 C.ar      1 <0>        -0.1073
     34 C26         4.3665   -8.6623   -9.6319 C.ar      1 <0>        -0.1088
     35 C27         4.0806   -7.4366   -9.0637 C.ar      1 <0>        -0.0186
     36 Cl1         3.5118   -6.1295  -10.0544 Cl        1 <0>        -0.0481
     37 H1         -3.3281   -2.7278   -0.0510 H         1 <0>         0.0577
     38 H2         -2.2468   -3.5049    1.1302 H         1 <0>         0.0578
     39 H3         -3.0380   -1.9611    1.5290 H         1 <0>         0.0655
     40 H4         -1.7405   -0.8343   -0.2586 H         1 <0>         0.0739
     41 H5         -0.6592   -1.6115    0.9226 H         1 <0>         0.0740
     42 H6         -0.4262   -3.5705   -0.5797 H         1 <0>         0.0626
     43 H7         -1.5075   -2.7933   -1.7608 H         1 <0>         0.0622
     44 H8         -0.2350   -4.2421   -2.5531 H         1 <0>         0.1289
     45 H9          0.9851   -5.3342   -4.3870 H         1 <0>         0.1245
     46 H10         3.6523   -1.9809   -4.5928 H         1 <0>         0.1367
     47 H11         2.4176   -0.8958   -2.7645 H         1 <0>         0.1354
     48 H12         4.0760   -2.6870   -6.7188 H         1 <0>         0.1413
     49 H13         5.0631   -4.5584   -8.3549 H         1 <0>         0.1390
     50 H14         3.1021   -7.6686   -5.1735 H         1 <0>         0.1142
     51 H15         2.3288   -6.4139   -4.1754 H         1 <0>         0.1247
     52 H16        -1.3255   -9.7550   -4.6132 H         1 <0>         0.4257
     53 H17        -1.3599  -10.5846   -6.0738 H         1 <0>         0.4117
     54 H18         1.0302   -8.5648   -7.6702 H         1 <0>         0.4196
     55 H19        -0.1215  -11.1425   -7.7451 H         1 <0>         0.0793
     56 H20        -1.3417   -9.9669   -8.2904 H         1 <0>         0.0732
     57 H21         0.2346   -9.1293  -10.0116 H         1 <0>         0.0949
     58 H22         1.4547  -10.3049   -9.4663 H         1 <0>         0.0844
     59 H23        -1.3211  -11.0485  -10.4950 H         1 <0>         0.0896
     60 H24         0.9072  -14.1572  -10.9198 H         1 <0>         0.1120
     61 H25        -0.7075  -13.6526  -11.5213 H         1 <0>         0.0796
     62 H26         2.0004  -12.2671  -11.9282 H         1 <0>         0.0783
     63 H27         0.7262  -12.6026  -13.1457 H         1 <0>         0.1040
     64 H28         4.8414   -8.1719   -5.8373 H         1 <0>         0.1287
     65 H29         5.3340  -10.3484   -6.8702 H         1 <0>         0.1309
     66 H30         5.0329  -10.6639   -9.2911 H         1 <0>         0.1322
     67 H31         4.2366   -8.8072  -10.6942 H         1 <0>         0.1360
@<TRIPOS>BOND
     1    1    2 1
     2    1   37 1
     3    1   38 1
     4    1   39 1
     5    2    3 1
     6    2   40 1
     7    2   41 1
     8    3    4 1
     9    3   42 1
    10    3   43 1
    11    4    5 1
    12    5   10 ar
    13    5    6 ar
    14    6    7 ar
    15    6   44 1
    16    7    8 ar
    17    7   45 1
    18    8    9 ar
    19    8   11 1
    20    9   10 ar
    21    9   46 1
    22   10   47 1
    23   11   15 1
    24   11   12 2
    25   12   13 1
    26   12   48 1
    27   13   14 2
    28   13   49 1
    29   14   15 1
    30   14   30 1
    31   15   16 1
    32   16   17 1
    33   16   50 1
    34   16   51 1
    35   17   18 2
    36   17   19 1
    37   19   20 2
    38   20   21 1
    39   20   22 1
    40   21   52 1
    41   21   53 1
    42   22   23 1
    43   22   54 1
    44   23   24 1
    45   23   55 1
    46   23   56 1
    47   24   25 1
    48   24   57 1
    49   24   58 1
    50   25   29 1
    51   25   26 1
    52   25   59 1
    53   26   27 1
    54   27   28 1
    55   27   60 1
    56   27   61 1
    57   28   29 1
    58   28   62 1
    59   28   63 1
    60   30   35 ar
    61   30   31 ar
    62   31   32 ar
    63   31   64 1
    64   32   33 ar
    65   32   65 1
    66   33   34 ar
    67   33   66 1
    68   34   35 ar
    69   34   67 1
    70   35   36 1
@<TRIPOS>MOLECULE
CHEMBL272718__1
   67    70     0     0     0
SMALL
USER_CHARGES

@<TRIPOS>ATOM
      1 C1         -2.5662   -2.4123    0.6526 C.3       1 <0>        -0.1507
      2 C2         -1.3786   -1.6567    0.0531 C.3       1 <0>        -0.1237
      3 C3         -0.7479   -2.4976   -1.0587 C.3       1 <0>         0.0573
      4 O1          0.3614   -1.7918   -1.6187 O.3       1 <0>        -0.3147
      5 C4          1.0374   -2.4044   -2.6259 C.ar      1 <0>         0.1312
      6 C5          0.6348   -3.6576   -3.0680 C.ar      1 <0>        -0.1998
      7 C6          1.3181   -4.2827   -4.0892 C.ar      1 <0>        -0.0835
      8 C7          2.4161   -3.6536   -4.6793 C.ar      1 <0>        -0.0548
      9 C8          2.8174   -2.3931   -4.2320 C.ar      1 <0>        -0.0590
     10 C9          2.1253   -1.7728   -3.2138 C.ar      1 <0>        -0.1457
     11 C10         3.1518   -4.3201   -5.7739 C.2       1 <0>         0.0815
     12 C11         3.9147   -3.6995   -6.7200 C.2       1 <0>        -0.1774
     13 C12         4.4314   -4.6889   -7.5639 C.2       1 <0>        -0.1498
     14 C13         3.9739   -5.8941   -7.1164 C.2       1 <0>         0.0486
     15 N1          3.1912   -5.6702   -6.0117 N.pl3     1 <0>        -0.4153
     16 C14         2.5102   -6.6991   -5.2219 C.3       1 <0>         0.0728
     17 C15         1.1813   -7.0212   -5.8556 C.2       1 <0>         0.4932
     18 O2          0.8363   -6.4464   -6.8694 O.2       1 <0>        -0.5108
     19 N2          0.3852   -7.9353   -5.3047 N.2       1 <0>        -0.7050
     20 C16        -0.0811   -8.9378   -6.0386 C.2       1 <0>         0.7080
     21 N3          0.3502   -9.1018   -7.3203 N.pl3     1 <0>        -0.8578
     22 N4         -0.9911   -9.8029   -5.5101 N.pl3     1 <0>        -0.7002
     23 C17        -1.5059  -10.9097   -6.3202 C.3       1 <0>         0.1144
     24 C18        -2.5052  -11.7236   -5.4956 C.3       1 <0>        -0.1437
     25 C19        -3.0428  -12.8794   -6.3417 C.3       1 <0>         0.2365
     26 O3         -3.8125  -12.3581   -7.4382 O.3       1 <0>        -0.3778
     27 C20        -4.8928  -13.3056   -7.6157 C.3       1 <0>         0.0164
     28 C21        -5.1933  -13.7179   -6.1530 C.3       1 <0>         0.0200
     29 O4         -3.8892  -13.7117   -5.5378 O.3       1 <0>        -0.3811
     30 C22         4.2735   -7.2116   -7.7141 C.ar      1 <0>        -0.0050
     31 C23         4.7290   -8.2589   -6.9109 C.ar      1 <0>        -0.1098
     32 C24         5.0064   -9.4866   -7.4753 C.ar      1 <0>        -0.1118
     33 C25         4.8349   -9.6821   -8.8346 C.ar      1 <0>        -0.1076
     34 C26         4.3841   -8.6495   -9.6371 C.ar      1 <0>        -0.1095
     35 C27         4.0969   -7.4169   -9.0847 C.ar      1 <0>        -0.0193
     36 Cl1         3.5244   -6.1240  -10.0918 Cl        1 <0>        -0.0485
     37 H1         -3.3066   -2.6011   -0.1247 H         1 <0>         0.0577
     38 H2         -2.2225   -3.3609    1.0651 H         1 <0>         0.0578
     39 H3         -3.0156   -1.8133    1.4447 H         1 <0>         0.0655
     40 H4         -1.7223   -0.7081   -0.3594 H         1 <0>         0.0739
     41 H5         -0.6382   -1.4680    0.8304 H         1 <0>         0.0740
     42 H6         -0.4042   -3.4462   -0.6462 H         1 <0>         0.0626
     43 H7         -1.4883   -2.6863   -1.8360 H         1 <0>         0.0622
     44 H8         -0.2146   -4.1435   -2.6110 H         1 <0>         0.1289
     45 H9          1.0047   -5.2577   -4.4320 H         1 <0>         0.1246
     46 H10         3.6664   -1.9033   -4.6855 H         1 <0>         0.1367
     47 H11         2.4325   -0.7962   -2.8700 H         1 <0>         0.1354
     48 H12         4.0880   -2.6367   -6.8028 H         1 <0>         0.1413
     49 H13         5.0759   -4.5279   -8.4155 H         1 <0>         0.1391
     50 H14         3.1249   -7.5987   -5.1898 H         1 <0>         0.1144
     51 H15         2.3499   -6.3322   -4.2081 H         1 <0>         0.1247
     52 H16         1.0567   -8.5367   -7.6704 H         1 <0>         0.4194
     53 H17        -0.0491   -9.7836   -7.8829 H         1 <0>         0.4031
     54 H18        -1.2982   -9.6861   -4.5975 H         1 <0>         0.4255
     55 H19        -2.0035  -10.5118   -7.2046 H         1 <0>         0.0803
     56 H20        -0.6795  -11.5512   -6.6261 H         1 <0>         0.0735
     57 H21        -2.0075  -12.1214   -4.6112 H         1 <0>         0.0970
     58 H22        -3.3316  -11.0821   -5.1898 H         1 <0>         0.0875
     59 H23        -2.2108  -13.4681   -6.7283 H         1 <0>         0.0904
     60 H24        -5.7596  -12.8279   -8.0725 H         1 <0>         0.1127
     61 H25        -4.5668  -14.1634   -8.2038 H         1 <0>         0.0802
     62 H26        -5.8484  -12.9899   -5.6744 H         1 <0>         0.0792
     63 H27        -5.6319  -14.7150   -6.1162 H         1 <0>         0.1047
     64 H28         4.8641   -8.1081   -5.8501 H         1 <0>         0.1289
     65 H29         5.3588  -10.2973   -6.8548 H         1 <0>         0.1312
     66 H30         5.0545  -10.6453   -9.2709 H         1 <0>         0.1335
     67 H31         4.2528   -8.8088  -10.6972 H         1 <0>         0.1367
@<TRIPOS>BOND
     1    1    2 1
     2    1   37 1
     3    1   38 1
     4    1   39 1
     5    2    3 1
     6    2   40 1
     7    2   41 1
     8    3    4 1
     9    3   42 1
    10    3   43 1
    11    4    5 1
    12    5   10 ar
    13    5    6 ar
    14    6    7 ar
    15    6   44 1
    16    7    8 ar
    17    7   45 1
    18    8    9 ar
    19    8   11 1
    20    9   10 ar
    21    9   46 1
    22   10   47 1
    23   11   15 1
    24   11   12 2
    25   12   13 1
    26   12   48 1
    27   13   14 2
    28   13   49 1
    29   14   15 1
    30   14   30 1
    31   15   16 1
    32   16   17 1
    33   16   50 1
    34   16   51 1
    35   17   18 2
    36   17   19 1
    37   19   20 2
    38   20   21 1
    39   20   22 1
    40   21   52 1
    41   21   53 1
    42   22   23 1
    43   22   54 1
    44   23   24 1
    45   23   55 1
    46   23   56 1
    47   24   25 1
    48   24   57 1
    49   24   58 1
    50   25   29 1
    51   25   26 1
    52   25   59 1
    53   26   27 1
    54   27   28 1
    55   27   60 1
    56   27   61 1
    57   28   29 1
    58   28   62 1
    59   28   63 1
    60   30   35 ar
    61   30   31 ar
    62   31   32 ar
    63   31   64 1
    64   32   33 ar
    65   32   65 1
    66   33   34 ar
    67   33   66 1
    68   34   35 ar
    69   34   67 1
    70   35   36 1
@<TRIPOS>MOLECULE
CHEMBL272719
   69    72     0     0     0
SMALL
USER_CHARGES

@<TRIPOS>ATOM
      1 C1         -2.5885   -2.5504    0.7298 C.3       1 <0>        -0.1507
      2 C2         -1.3989   -1.7888    0.1418 C.3       1 <0>        -0.1246
      3 C3         -0.7679   -2.6160   -0.9801 C.3       1 <0>         0.0577
      4 O1          0.3432   -1.9046   -1.5292 O.3       1 <0>        -0.3128
      5 C4          1.0197   -2.5049   -2.5434 C.ar      1 <0>         0.1368
      6 C5          0.6158   -3.7516   -3.0026 C.ar      1 <0>        -0.2014
      7 C6          1.2995   -4.3643   -4.0309 C.ar      1 <0>        -0.0829
      8 C7          2.3994   -3.7292   -4.6113 C.ar      1 <0>        -0.0627
      9 C8          2.8019   -2.4753   -4.1469 C.ar      1 <0>        -0.0559
     10 C9          2.1094   -1.8674   -3.1216 C.ar      1 <0>        -0.1448
     11 C10         3.1355   -4.3823   -5.7135 C.2       1 <0>         0.0922
     12 C11         3.9008   -3.7505   -6.6503 C.2       1 <0>        -0.1786
     13 C12         4.4171   -4.7296   -7.5064 C.2       1 <0>        -0.1431
     14 C13         3.9570   -5.9398   -7.0755 C.2       1 <0>         0.0349
     15 N1          3.1731   -5.7293   -5.9691 N.pl3     1 <0>        -0.4167
     16 C14         2.4892   -6.7674   -5.1939 C.3       1 <0>         0.0720
     17 C15         1.1603   -7.0780   -5.8330 C.2       1 <0>         0.4939
     18 O2          0.8173   -6.4889   -6.8393 O.2       1 <0>        -0.5096
     19 N2          0.3618   -7.9979   -5.2954 N.2       1 <0>        -0.6922
     20 C16        -0.1060   -8.9893   -6.0431 C.2       1 <0>         0.7054
     21 N3         -1.0180   -9.8599   -5.5272 N.pl3     1 <0>        -0.8200
     22 N4          0.3259   -9.1366   -7.3268 N.pl3     1 <0>        -0.7419
     23 C17        -0.2735  -10.1585   -8.1886 C.3       1 <0>         0.1102
     24 C18         0.3865  -10.1134   -9.5681 C.3       1 <0>        -0.1560
     25 C19        -0.2394  -11.1806  -10.4682 C.3       1 <0>         0.0975
     26 N5          0.3926  -11.1374  -11.7891 N.pl3     1 <0>        -0.4083
     27 C20        -0.0088  -10.3813  -12.8572 C.2       1 <0>         0.0271
     28 C21         0.8470  -10.6431  -13.8635 C.2       1 <0>         0.0066
     29 N6          1.7464  -11.5348  -13.4219 N.pl3     1 <0>        -0.4745
     30 C22         1.4834  -11.8317  -12.1786 C.cat     1 <0>         0.2874
     31 C23         4.2553   -7.2498   -7.6902 C.ar      1 <0>         0.0060
     32 C24         4.7077   -8.3085   -6.9003 C.ar      1 <0>        -0.1071
     33 C25         4.9840   -9.5290   -7.4804 C.ar      1 <0>        -0.1082
     34 C26         4.8143   -9.7061   -8.8424 C.ar      1 <0>        -0.1154
     35 C27         4.3665   -8.6623   -9.6319 C.ar      1 <0>        -0.1164
     36 C28         4.0806   -7.4366   -9.0637 C.ar      1 <0>        -0.0229
     37 Cl1         3.5118   -6.1295  -10.0544 Cl        1 <0>        -0.0469
     38 H1         -3.3281   -2.7278   -0.0510 H         1 <0>         0.0573
     39 H2         -2.2468   -3.5049    1.1302 H         1 <0>         0.0577
     40 H3         -3.0380   -1.9611    1.5290 H         1 <0>         0.0670
     41 H4         -1.7405   -0.8343   -0.2586 H         1 <0>         0.0748
     42 H5         -0.6592   -1.6115    0.9226 H         1 <0>         0.0751
     43 H6         -0.4262   -3.5705   -0.5797 H         1 <0>         0.0629
     44 H7         -1.5075   -2.7933   -1.7608 H         1 <0>         0.0622
     45 H8         -0.2350   -4.2421   -2.5531 H         1 <0>         0.1297
     46 H9          0.9851   -5.3342   -4.3870 H         1 <0>         0.1216
     47 H10         3.6523   -1.9809   -4.5928 H         1 <0>         0.1375
     48 H11         2.4176   -0.8958   -2.7645 H         1 <0>         0.1376
     49 H12         4.0760   -2.6870   -6.7188 H         1 <0>         0.1437
     50 H13         5.0631   -4.5584   -8.3549 H         1 <0>         0.1392
     51 H14         3.1021   -7.6686   -5.1735 H         1 <0>         0.1142
     52 H15         2.3288   -6.4139   -4.1754 H         1 <0>         0.1280
     53 H16        -1.3255   -9.7550   -4.6132 H         1 <0>         0.4299
     54 H17        -1.3599  -10.5846   -6.0738 H         1 <0>         0.4097
     55 H18         1.0302   -8.5648   -7.6702 H         1 <0>         0.4209
     56 H19        -0.1215  -11.1425   -7.7451 H         1 <0>         0.0789
     57 H20        -1.3417   -9.9669   -8.2904 H         1 <0>         0.0807
     58 H21         0.2346   -9.1293  -10.0116 H         1 <0>         0.0938
     59 H22         1.4547  -10.3049   -9.4663 H         1 <0>         0.0901
     60 H23        -0.0875  -12.1646  -10.0247 H         1 <0>         0.1267
     61 H24        -1.3076  -10.9890  -10.5700 H         1 <0>         0.1295
     62 H25        -0.8502   -9.7049  -12.8873 H         1 <0>         0.2234
     63 H26         0.8148  -10.2109  -14.8527 H         1 <0>         0.2248
     64 H27         2.0438  -12.5205  -11.5638 H         1 <0>         0.2596
     65 H28         4.8414   -8.1719   -5.8373 H         1 <0>         0.1320
     66 H29         5.3340  -10.3484   -6.8702 H         1 <0>         0.1331
     67 H30         5.0329  -10.6639   -9.2911 H         1 <0>         0.1297
     68 H31         4.2366   -8.8072  -10.6942 H         1 <0>         0.1279
     69 H32         2.4789  -11.8988  -13.9433 H         1 <0>         0.4661
@<TRIPOS>BOND
     1    1    2 1
     2    1   38 1
     3    1   39 1
     4    1   40 1
     5    2    3 1
     6    2   41 1
     7    2   42 1
     8    3    4 1
     9    3   43 1
    10    3   44 1
    11    4    5 1
    12    5   10 ar
    13    5    6 ar
    14    6    7 ar
    15    6   45 1
    16    7    8 ar
    17    7   46 1
    18    8    9 ar
    19    8   11 1
    20    9   10 ar
    21    9   47 1
    22   10   48 1
    23   11   15 1
    24   11   12 2
    25   12   13 1
    26   12   49 1
    27   13   14 2
    28   13   50 1
    29   14   15 1
    30   14   31 1
    31   15   16 1
    32   16   17 1
    33   16   51 1
    34   16   52 1
    35   17   18 2
    36   17   19 1
    37   19   20 2
    38   20   21 1
    39   20   22 1
    40   21   53 1
    41   21   54 1
    42   22   23 1
    43   22   55 1
    44   23   24 1
    45   23   56 1
    46   23   57 1
    47   24   25 1
    48   24   58 1
    49   24   59 1
    50   25   26 1
    51   25   60 1
    52   25   61 1
    53   26   30 1
    54   26   27 1
    55   27   28 2
    56   27   62 1
    57   28   29 1
    58   28   63 1
    59   29   30 2
    60   29   69 1
    61   30   64 1
    62   31   36 ar
    63   31   32 ar
    64   32   33 ar
    65   32   65 1
    66   33   34 ar
    67   33   66 1
    68   34   35 ar
    69   34   67 1
    70   35   36 ar
    71   35   68 1
    72   36   37 1
@<TRIPOS>MOLECULE
CHEMBL272719__1
   68    71     0     0     0
SMALL
USER_CHARGES

@<TRIPOS>ATOM
      1 C1         -2.5662   -2.4123    0.6526 C.3       1 <0>        -0.1508
      2 C2         -1.3786   -1.6567    0.0531 C.3       1 <0>        -0.1237
      3 C3         -0.7479   -2.4976   -1.0587 C.3       1 <0>         0.0574
      4 O1          0.3614   -1.7918   -1.6187 O.3       1 <0>        -0.3144
      5 C4          1.0374   -2.4044   -2.6259 C.ar      1 <0>         0.1318
      6 C5          0.6348   -3.6576   -3.0680 C.ar      1 <0>        -0.2001
      7 C6          1.3181   -4.2827   -4.0892 C.ar      1 <0>        -0.0837
      8 C7          2.4161   -3.6536   -4.6793 C.ar      1 <0>        -0.0553
      9 C8          2.8174   -2.3931   -4.2320 C.ar      1 <0>        -0.0587
     10 C9          2.1253   -1.7728   -3.2138 C.ar      1 <0>        -0.1455
     11 C10         3.1518   -4.3201   -5.7739 C.2       1 <0>         0.0820
     12 C11         3.9147   -3.6995   -6.7200 C.2       1 <0>        -0.1771
     13 C12         4.4314   -4.6889   -7.5639 C.2       1 <0>        -0.1490
     14 C13         3.9739   -5.8941   -7.1164 C.2       1 <0>         0.0478
     15 N1          3.1912   -5.6702   -6.0117 N.pl3     1 <0>        -0.4158
     16 C14         2.5102   -6.6991   -5.2219 C.3       1 <0>         0.0729
     17 C15         1.1813   -7.0212   -5.8556 C.2       1 <0>         0.4933
     18 O2          0.8363   -6.4464   -6.8694 O.2       1 <0>        -0.5092
     19 N2          0.3852   -7.9353   -5.3047 N.2       1 <0>        -0.7026
     20 C16        -0.0811   -8.9378   -6.0386 C.2       1 <0>         0.7069
     21 N3          0.3502   -9.1018   -7.3203 N.pl3     1 <0>        -0.8581
     22 N4         -0.9911   -9.8029   -5.5101 N.pl3     1 <0>        -0.7017
     23 C17        -1.5059  -10.9097   -6.3202 C.3       1 <0>         0.1135
     24 C18        -2.5052  -11.7236   -5.4956 C.3       1 <0>        -0.1478
     25 C19        -3.0428  -12.8794   -6.3417 C.3       1 <0>         0.1094
     26 N5         -3.9996  -13.6587   -5.5521 N.pl3     1 <0>        -0.4625
     27 C20        -3.7097  -14.7308   -4.7519 C.2       1 <0>        -0.0576
     28 C21        -4.8742  -15.1431   -4.2159 C.2       1 <0>        -0.0264
     29 N6         -5.8487  -14.3446   -4.6762 N.2       1 <0>        -0.4932
     30 C22        -5.3314  -13.4500   -5.4732 C.2       1 <0>         0.1827
     31 C23         4.2735   -7.2116   -7.7141 C.ar      1 <0>        -0.0048
     32 C24         4.7290   -8.2589   -6.9109 C.ar      1 <0>        -0.1100
     33 C25         5.0064   -9.4866   -7.4753 C.ar      1 <0>        -0.1119
     34 C26         4.8349   -9.6821   -8.8346 C.ar      1 <0>        -0.1078
     35 C27         4.3841   -8.6495   -9.6371 C.ar      1 <0>        -0.1095
     36 C28         4.0969   -7.4169   -9.0847 C.ar      1 <0>        -0.0195
     37 Cl1         3.5244   -6.1240  -10.0918 Cl        1 <0>        -0.0481
     38 H1         -3.3066   -2.6011   -0.1247 H         1 <0>         0.0577
     39 H2         -2.2225   -3.3609    1.0651 H         1 <0>         0.0578
     40 H3         -3.0156   -1.8133    1.4447 H         1 <0>         0.0657
     41 H4         -1.7223   -0.7081   -0.3594 H         1 <0>         0.0741
     42 H5         -0.6382   -1.4680    0.8304 H         1 <0>         0.0741
     43 H6         -0.4042   -3.4462   -0.6462 H         1 <0>         0.0625
     44 H7         -1.4883   -2.6863   -1.8360 H         1 <0>         0.0622
     45 H8         -0.2146   -4.1435   -2.6110 H         1 <0>         0.1289
     46 H9          1.0047   -5.2577   -4.4320 H         1 <0>         0.1239
     47 H10         3.6664   -1.9033   -4.6855 H         1 <0>         0.1369
     48 H11         2.4325   -0.7962   -2.8700 H         1 <0>         0.1357
     49 H12         4.0880   -2.6367   -6.8028 H         1 <0>         0.1416
     50 H13         5.0759   -4.5279   -8.4155 H         1 <0>         0.1393
     51 H14         3.1249   -7.5987   -5.1898 H         1 <0>         0.1145
     52 H15         2.3499   -6.3322   -4.2081 H         1 <0>         0.1251
     53 H16         1.0567   -8.5367   -7.6704 H         1 <0>         0.4202
     54 H17        -0.0491   -9.7836   -7.8829 H         1 <0>         0.4021
     55 H18        -1.2982   -9.6861   -4.5975 H         1 <0>         0.4264
     56 H19        -2.0035  -10.5118   -7.2046 H         1 <0>         0.0760
     57 H20        -0.6795  -11.5512   -6.6261 H         1 <0>         0.0759
     58 H21        -2.0075  -12.1214   -4.6112 H         1 <0>         0.0849
     59 H22        -3.3316  -11.0821   -5.1898 H         1 <0>         0.0854
     60 H23        -3.5404  -12.4815   -7.2261 H         1 <0>         0.0997
     61 H24        -2.2163  -13.5209   -6.6475 H         1 <0>         0.0973
     62 H25        -2.7345  -15.1631   -4.5832 H         1 <0>         0.1744
     63 H26        -5.0013  -15.9715   -3.5347 H         1 <0>         0.1703
     64 H27        -5.8783  -12.6730   -5.9867 H         1 <0>         0.2043
     65 H28         4.8641   -8.1081   -5.8501 H         1 <0>         0.1288
     66 H29         5.3588  -10.2973   -6.8548 H         1 <0>         0.1311
     67 H30         5.0545  -10.6453   -9.2709 H         1 <0>         0.1335
     68 H31         4.2528   -8.8088  -10.6972 H         1 <0>         0.1368
@<TRIPOS>BOND
     1    1    2 1
     2    1   38 1
     3    1   39 1
     4    1   40 1
     5    2    3 1
     6    2   41 1
     7    2   42 1
     8    3    4 1
     9    3   43 1
    10    3   44 1
    11    4    5 1
    12    5   10 ar
    13    5    6 ar
    14    6    7 ar
    15    6   45 1
    16    7    8 ar
    17    7   46 1
    18    8    9 ar
    19    8   11 1
    20    9   10 ar
    21    9   47 1
    22   10   48 1
    23   11   15 1
    24   11   12 2
    25   12   13 1
    26   12   49 1
    27   13   14 2
    28   13   50 1
    29   14   15 1
    30   14   31 1
    31   15   16 1
    32   16   17 1
    33   16   51 1
    34   16   52 1
    35   17   18 2
    36   17   19 1
    37   19   20 2
    38   20   21 1
    39   20   22 1
    40   21   53 1
    41   21   54 1
    42   22   23 1
    43   22   55 1
    44   23   24 1
    45   23   56 1
    46   23   57 1
    47   24   25 1
    48   24   58 1
    49   24   59 1
    50   25   26 1
    51   25   60 1
    52   25   61 1
    53   26   30 1
    54   26   27 1
    55   27   28 2
    56   27   62 1
    57   28   29 1
    58   28   63 1
    59   29   30 2
    60   30   64 1
    61   31   36 ar
    62   31   32 ar
    63   32   33 ar
    64   32   65 1
    65   33   34 ar
    66   33   66 1
    67   34   35 ar
    68   34   67 1
    69   35   36 ar
    70   35   68 1
    71   36   37 1
@<TRIPOS>MOLECULE
CHEMBL272719__2
   68    71     0     0     0
SMALL
USER_CHARGES

@<TRIPOS>ATOM
      1 C1         -2.5885   -2.5504    0.7298 C.3       1 <0>        -0.1507
      2 C2         -1.3989   -1.7888    0.1418 C.3       1 <0>        -0.1238
      3 C3         -0.7679   -2.6160   -0.9801 C.3       1 <0>         0.0574
      4 O1          0.3432   -1.9046   -1.5292 O.3       1 <0>        -0.3144
      5 C4          1.0197   -2.5049   -2.5434 C.ar      1 <0>         0.1316
      6 C5          0.6158   -3.7516   -3.0026 C.ar      1 <0>        -0.2000
      7 C6          1.2995   -4.3643   -4.0309 C.ar      1 <0>        -0.0838
      8 C7          2.3994   -3.7292   -4.6113 C.ar      1 <0>        -0.0550
      9 C8          2.8019   -2.4753   -4.1469 C.ar      1 <0>        -0.0588
     10 C9          2.1094   -1.8674   -3.1216 C.ar      1 <0>        -0.1454
     11 C10         3.1355   -4.3823   -5.7135 C.2       1 <0>         0.0817
     12 C11         3.9008   -3.7505   -6.6503 C.2       1 <0>        -0.1768
     13 C12         4.4171   -4.7296   -7.5064 C.2       1 <0>        -0.1492
     14 C13         3.9570   -5.9398   -7.0755 C.2       1 <0>         0.0485
     15 N1          3.1731   -5.7293   -5.9691 N.pl3     1 <0>        -0.4159
     16 C14         2.4892   -6.7674   -5.1939 C.3       1 <0>         0.0729
     17 C15         1.1603   -7.0780   -5.8330 C.2       1 <0>         0.4924
     18 O2          0.8173   -6.4889   -6.8393 O.2       1 <0>        -0.5094
     19 N2          0.3618   -7.9979   -5.2954 N.2       1 <0>        -0.7015
     20 C16        -0.1060   -8.9893   -6.0431 C.2       1 <0>         0.7056
     21 N3         -1.0180   -9.8599   -5.5272 N.pl3     1 <0>        -0.8212
     22 N4          0.3259   -9.1366   -7.3268 N.pl3     1 <0>        -0.7369
     23 C17        -0.2735  -10.1585   -8.1886 C.3       1 <0>         0.1093
     24 C18         0.3865  -10.1134   -9.5681 C.3       1 <0>        -0.1486
     25 C19        -0.2394  -11.1806  -10.4682 C.3       1 <0>         0.1112
     26 N5          0.3926  -11.1374  -11.7891 N.pl3     1 <0>        -0.4606
     27 C20        -0.0091  -10.3816  -12.8573 C.2       1 <0>        -0.0552
     28 C21         0.8468  -10.6433  -13.8636 C.2       1 <0>        -0.0262
     29 N6          1.7465  -11.5346  -13.4218 N.2       1 <0>        -0.4916
     30 C22         1.4837  -11.8313  -12.1785 C.2       1 <0>         0.1811
     31 C23         4.2553   -7.2498   -7.6902 C.ar      1 <0>        -0.0050
     32 C24         4.7077   -8.3085   -6.9003 C.ar      1 <0>        -0.1104
     33 C25         4.9840   -9.5290   -7.4804 C.ar      1 <0>        -0.1116
     34 C26         4.8143   -9.7061   -8.8424 C.ar      1 <0>        -0.1074
     35 C27         4.3665   -8.6623   -9.6319 C.ar      1 <0>        -0.1081
     36 C28         4.0806   -7.4366   -9.0637 C.ar      1 <0>        -0.0188
     37 Cl1         3.5118   -6.1295  -10.0544 Cl        1 <0>        -0.0482
     38 H1         -3.3281   -2.7278   -0.0510 H         1 <0>         0.0576
     39 H2         -2.2468   -3.5049    1.1302 H         1 <0>         0.0578
     40 H3         -3.0380   -1.9611    1.5290 H         1 <0>         0.0656
     41 H4         -1.7405   -0.8343   -0.2586 H         1 <0>         0.0740
     42 H5         -0.6592   -1.6115    0.9226 H         1 <0>         0.0742
     43 H6         -0.4262   -3.5705   -0.5797 H         1 <0>         0.0626
     44 H7         -1.5075   -2.7933   -1.7608 H         1 <0>         0.0621
     45 H8         -0.2350   -4.2421   -2.5531 H         1 <0>         0.1289
     46 H9          0.9851   -5.3342   -4.3870 H         1 <0>         0.1239
     47 H10         3.6523   -1.9809   -4.5928 H         1 <0>         0.1368
     48 H11         2.4176   -0.8958   -2.7645 H         1 <0>         0.1356
     49 H12         4.0760   -2.6870   -6.7188 H         1 <0>         0.1416
     50 H13         5.0631   -4.5584   -8.3549 H         1 <0>         0.1391
     51 H14         3.1021   -7.6686   -5.1735 H         1 <0>         0.1144
     52 H15         2.3288   -6.4139   -4.1754 H         1 <0>         0.1251
     53 H16        -1.3255   -9.7550   -4.6132 H         1 <0>         0.4266
     54 H17        -1.3599  -10.5846   -6.0738 H         1 <0>         0.4108
     55 H18         1.0302   -8.5648   -7.6702 H         1 <0>         0.4206
     56 H19        -0.1215  -11.1425   -7.7451 H         1 <0>         0.0748
     57 H20        -1.3417   -9.9669   -8.2904 H         1 <0>         0.0758
     58 H21         0.2346   -9.1293  -10.0116 H         1 <0>         0.0837
     59 H22         1.4547  -10.3049   -9.4663 H         1 <0>         0.0824
     60 H23        -0.0875  -12.1646  -10.0247 H         1 <0>         0.0987
     61 H24        -1.3076  -10.9890  -10.5700 H         1 <0>         0.0965
     62 H25        -0.8508   -9.7056  -12.8875 H         1 <0>         0.1732
     63 H26         0.8145  -10.2113  -14.8529 H         1 <0>         0.1697
     64 H27         2.0443  -12.5198  -11.5636 H         1 <0>         0.2025
     65 H28         4.8414   -8.1719   -5.8373 H         1 <0>         0.1287
     66 H29         5.3340  -10.3484   -6.8702 H         1 <0>         0.1311
     67 H30         5.0329  -10.6639   -9.2911 H         1 <0>         0.1331
     68 H31         4.2366   -8.8072  -10.6942 H         1 <0>         0.1355
@<TRIPOS>BOND
     1    1    2 1
     2    1   38 1
     3    1   39 1
     4    1   40 1
     5    2    3 1
     6    2   41 1
     7    2   42 1
     8    3    4 1
     9    3   43 1
    10    3   44 1
    11    4    5 1
    12    5   10 ar
    13    5    6 ar
    14    6    7 ar
    15    6   45 1
    16    7    8 ar
    17    7   46 1
    18    8    9 ar
    19    8   11 1
    20    9   10 ar
    21    9   47 1
    22   10   48 1
    23   11   15 1
    24   11   12 2
    25   12   13 1
    26   12   49 1
    27   13   14 2
    28   13   50 1
    29   14   15 1
    30   14   31 1
    31   15   16 1
    32   16   17 1
    33   16   51 1
    34   16   52 1
    35   17   18 2
    36   17   19 1
    37   19   20 2
    38   20   21 1
    39   20   22 1
    40   21   53 1
    41   21   54 1
    42   22   23 1
    43   22   55 1
    44   23   24 1
    45   23   56 1
    46   23   57 1
    47   24   25 1
    48   24   58 1
    49   24   59 1
    50   25   26 1
    51   25   60 1
    52   25   61 1
    53   26   30 1
    54   26   27 1
    55   27   28 2
    56   27   62 1
    57   28   29 1
    58   28   63 1
    59   29   30 2
    60   30   64 1
    61   31   36 ar
    62   31   32 ar
    63   32   33 ar
    64   32   65 1
    65   33   34 ar
    66   33   66 1
    67   34   35 ar
    68   34   67 1
    69   35   36 ar
    70   35   68 1
    71   36   37 1
@<TRIPOS>MOLECULE
CHEMBL272719__3
   69    72     0     0     0
SMALL
USER_CHARGES

@<TRIPOS>ATOM
      1 C1         -2.5662   -2.4123    0.6526 C.3       1 <0>        -0.1499
      2 C2         -1.3786   -1.6567    0.0531 C.3       1 <0>        -0.1252
      3 C3         -0.7479   -2.4976   -1.0587 C.3       1 <0>         0.0587
      4 O1          0.3614   -1.7918   -1.6187 O.3       1 <0>        -0.3132
      5 C4          1.0374   -2.4044   -2.6259 C.ar      1 <0>         0.1330
      6 C5          0.6348   -3.6576   -3.0680 C.ar      1 <0>        -0.2015
      7 C6          1.3181   -4.2827   -4.0892 C.ar      1 <0>        -0.0853
      8 C7          2.4161   -3.6536   -4.6793 C.ar      1 <0>        -0.0560
      9 C8          2.8174   -2.3931   -4.2320 C.ar      1 <0>        -0.0571
     10 C9          2.1253   -1.7728   -3.2138 C.ar      1 <0>        -0.1437
     11 C10         3.1518   -4.3201   -5.7739 C.2       1 <0>         0.0825
     12 C11         3.9147   -3.6995   -6.7200 C.2       1 <0>        -0.1751
     13 C12         4.4314   -4.6889   -7.5639 C.2       1 <0>        -0.1460
     14 C13         3.9739   -5.8941   -7.1164 C.2       1 <0>         0.0452
     15 N1          3.1912   -5.6702   -6.0117 N.pl3     1 <0>        -0.4182
     16 C14         2.5102   -6.6991   -5.2219 C.3       1 <0>         0.0743
     17 C15         1.1813   -7.0212   -5.8556 C.2       1 <0>         0.4924
     18 O2          0.8363   -6.4464   -6.8694 O.2       1 <0>        -0.5025
     19 N2          0.3852   -7.9353   -5.3047 N.2       1 <0>        -0.6955
     20 C16        -0.0811   -8.9378   -6.0386 C.2       1 <0>         0.7036
     21 N3          0.3502   -9.1018   -7.3203 N.pl3     1 <0>        -0.8576
     22 N4         -0.9911   -9.8029   -5.5101 N.pl3     1 <0>        -0.7071
     23 C17        -1.5059  -10.9097   -6.3202 C.3       1 <0>         0.1144
     24 C18        -2.5052  -11.7236   -5.4956 C.3       1 <0>        -0.1534
     25 C19        -3.0428  -12.8794   -6.3417 C.3       1 <0>         0.0959
     26 N5         -3.9996  -13.6587   -5.5521 N.pl3     1 <0>        -0.4103
     27 C20        -3.7096  -14.7305   -4.7516 C.2       1 <0>         0.0254
     28 C21        -4.8742  -15.1430   -4.2157 C.2       1 <0>         0.0061
     29 N6         -5.8487  -14.3448   -4.6764 N.pl3     1 <0>        -0.4751
     30 C22        -5.3315  -13.4503   -5.4736 C.cat     1 <0>         0.2902
     31 C23         4.2735   -7.2116   -7.7141 C.ar      1 <0>        -0.0041
     32 C24         4.7290   -8.2589   -6.9109 C.ar      1 <0>        -0.1108
     33 C25         5.0064   -9.4866   -7.4753 C.ar      1 <0>        -0.1126
     34 C26         4.8349   -9.6821   -8.8346 C.ar      1 <0>        -0.1084
     35 C27         4.3841   -8.6495   -9.6371 C.ar      1 <0>        -0.1092
     36 C28         4.0969   -7.4169   -9.0847 C.ar      1 <0>        -0.0204
     37 Cl1         3.5244   -6.1240  -10.0918 Cl        1 <0>        -0.0462
     38 H1         -3.3066   -2.6011   -0.1247 H         1 <0>         0.0566
     39 H2         -2.2225   -3.3609    1.0651 H         1 <0>         0.0568
     40 H3         -3.0156   -1.8133    1.4447 H         1 <0>         0.0667
     41 H4         -1.7223   -0.7081   -0.3594 H         1 <0>         0.0752
     42 H5         -0.6382   -1.4680    0.8304 H         1 <0>         0.0753
     43 H6         -0.4042   -3.4462   -0.6462 H         1 <0>         0.0616
     44 H7         -1.4883   -2.6863   -1.8360 H         1 <0>         0.0611
     45 H8         -0.2146   -4.1435   -2.6110 H         1 <0>         0.1277
     46 H9          1.0047   -5.2577   -4.4320 H         1 <0>         0.1216
     47 H10         3.6664   -1.9033   -4.6855 H         1 <0>         0.1381
     48 H11         2.4325   -0.7962   -2.8700 H         1 <0>         0.1372
     49 H12         4.0880   -2.6367   -6.8028 H         1 <0>         0.1431
     50 H13         5.0759   -4.5279   -8.4155 H         1 <0>         0.1405
     51 H14         3.1249   -7.5987   -5.1898 H         1 <0>         0.1148
     52 H15         2.3499   -6.3322   -4.2081 H         1 <0>         0.1261
     53 H16         1.0567   -8.5367   -7.6704 H         1 <0>         0.4232
     54 H17        -0.0491   -9.7836   -7.8829 H         1 <0>         0.4004
     55 H18        -1.2982   -9.6861   -4.5975 H         1 <0>         0.4263
     56 H19        -2.0035  -10.5118   -7.2046 H         1 <0>         0.0797
     57 H20        -0.6795  -11.5512   -6.6261 H         1 <0>         0.0805
     58 H21        -2.0075  -12.1214   -4.6112 H         1 <0>         0.0945
     59 H22        -3.3316  -11.0821   -5.1898 H         1 <0>         0.0922
     60 H23        -3.5404  -12.4815   -7.2261 H         1 <0>         0.1272
     61 H24        -2.2163  -13.5209   -6.6475 H         1 <0>         0.1300
     62 H25        -2.7343  -15.1626   -4.5825 H         1 <0>         0.2240
     63 H26        -5.0012  -15.9712   -3.5343 H         1 <0>         0.2248
     64 H27        -5.8785  -12.6736   -5.9874 H         1 <0>         0.2606
     65 H28         4.8641   -8.1081   -5.8501 H         1 <0>         0.1288
     66 H29         5.3588  -10.2973   -6.8548 H         1 <0>         0.1309
     67 H30         5.0545  -10.6453   -9.2709 H         1 <0>         0.1334
     68 H31         4.2528   -8.8088  -10.6972 H         1 <0>         0.1373
     69 H32        -6.7890  -14.4185   -4.4500 H         1 <0>         0.4666
@<TRIPOS>BOND
     1    1    2 1
     2    1   38 1
     3    1   39 1
     4    1   40 1
     5    2    3 1
     6    2   41 1
     7    2   42 1
     8    3    4 1
     9    3   43 1
    10    3   44 1
    11    4    5 1
    12    5   10 ar
    13    5    6 ar
    14    6    7 ar
    15    6   45 1
    16    7    8 ar
    17    7   46 1
    18    8    9 ar
    19    8   11 1
    20    9   10 ar
    21    9   47 1
    22   10   48 1
    23   11   15 1
    24   11   12 2
    25   12   13 1
    26   12   49 1
    27   13   14 2
    28   13   50 1
    29   14   15 1
    30   14   31 1
    31   15   16 1
    32   16   17 1
    33   16   51 1
    34   16   52 1
    35   17   18 2
    36   17   19 1
    37   19   20 2
    38   20   21 1
    39   20   22 1
    40   21   53 1
    41   21   54 1
    42   22   23 1
    43   22   55 1
    44   23   24 1
    45   23   56 1
    46   23   57 1
    47   24   25 1
    48   24   58 1
    49   24   59 1
    50   25   26 1
    51   25   60 1
    52   25   61 1
    53   26   30 1
    54   26   27 1
    55   27   28 2
    56   27   62 1
    57   28   29 1
    58   28   63 1
    59   29   30 2
    60   29   69 1
    61   30   64 1
    62   31   36 ar
    63   31   32 ar
    64   32   33 ar
    65   32   65 1
    66   33   34 ar
    67   33   66 1
    68   34   35 ar
    69   34   67 1
    70   35   36 ar
    71   35   68 1
    72   36   37 1
@<TRIPOS>MOLECULE
CHEMBL1209054
   68    71     0     0     0
SMALL
USER_CHARGES

@<TRIPOS>ATOM
      1 C1          4.7775   -4.1170    6.2972 C.3       1 <0>        -0.1841
      2 C2          4.3459   -3.4423    5.0206 C.2       1 <0>         0.5120
      3 O1          4.1880   -4.0971    4.0121 O.2       1 <0>        -0.5317
      4 N1          4.1355   -2.1112    4.9998 N.am      1 <0>        -0.7328
      5 C3          3.7160   -1.4553    3.7588 C.3       1 <0>         0.1325
      6 H1          3.5966   -0.3863    3.9352 H         1 <0>         0.1054
      7 C4          4.7774   -1.6787    2.6798 C.3       1 <0>        -0.0988
      8 C5          6.0558   -0.9897    3.0824 C.ar      1 <0>        -0.0283
      9 C6          6.2791    0.3229    2.7116 C.ar      1 <0>        -0.1646
     10 C7          7.4536    0.9569    3.0806 C.ar      1 <0>         0.1397
     11 C8          8.4039    0.2757    3.8215 C.ar      1 <0>        -0.1924
     12 C9          8.1789   -1.0386    4.1927 C.ar      1 <0>         0.1388
     13 C10         7.0014   -1.6690    3.8270 C.ar      1 <0>        -0.1582
     14 F1          9.1056   -1.7046    4.9158 F         1 <0>        -0.1259
     15 F2          7.6720    2.2397    2.7173 F         1 <0>        -0.1256
     16 C11         2.3839   -2.0474    3.2941 C.3       1 <0>         0.0683
     17 H2          2.5033   -3.1164    3.1177 H         1 <0>         0.1455
     18 C12         1.3224   -1.8241    4.3731 C.3       1 <0>        -0.0568
     19 N2          0.0763   -2.4957    3.9807 N.4       1 <0>        -0.4988
     20 C13        -0.9782   -2.1785    4.9530 C.3       1 <0>         0.1160
     21 C14        -2.2712   -2.8926    4.5542 C.3       1 <0>        -0.1321
     22 C15        -2.0339   -4.4039    4.5341 C.3       1 <0>        -0.1361
     23 C16        -1.6018   -4.8708    5.9256 C.3       1 <0>        -0.1326
     24 C17        -0.3087   -4.1567    6.3244 C.3       1 <0>        -0.1348
     25 C18        -0.5461   -2.6454    6.3445 C.3       1 <0>        -0.1380
     26 C19        -1.2119   -0.6899    4.9727 C.ar      1 <0>        -0.1147
     27 C20        -0.9308    0.0681    3.8496 C.ar      1 <0>        -0.1391
     28 C21        -1.1425    1.4351    3.8594 C.ar      1 <0>        -0.0888
     29 C22        -1.6365    2.0517    4.9906 C.ar      1 <0>        -0.0851
     30 C23        -1.9225    1.2931    6.1265 C.ar      1 <0>         0.0312
     31 C24        -1.7111   -0.0866    6.1083 C.ar      1 <0>        -0.0874
     32 C25        -2.4516    1.9471    7.3421 C.2       1 <0>        -0.1485
     33 C26        -2.7344    3.2694    7.5567 C.2       1 <0>        -0.1198
     34 C27        -3.2255    3.6506    8.7863 C.2       1 <0>        -0.1636
     35 C28        -3.4136    2.7075    9.7447 C.2       1 <0>        -0.1478
     36 S1         -2.8953    1.2171    8.9098 S.3       1 <0>         0.0605
     37 O2          1.9746   -1.4077    2.0836 O.3       1 <0>        -0.5422
     38 H3          4.8969   -5.1859    6.1208 H         1 <0>         0.1002
     39 H4          5.7265   -3.6951    6.6282 H         1 <0>         0.0959
     40 H5          4.0213   -3.9578    7.0659 H         1 <0>         0.0910
     41 H6          4.2619   -1.5875    5.8064 H         1 <0>         0.4119
     42 H7          4.9608   -2.7472    2.5662 H         1 <0>         0.1084
     43 H8          4.4257   -1.2678    1.7335 H         1 <0>         0.1016
     44 H9          5.5375    0.8542    2.1335 H         1 <0>         0.1431
     45 H10         9.3203    0.7693    4.1094 H         1 <0>         0.1522
     46 H11         6.8238   -2.6931    4.1202 H         1 <0>         0.1362
     47 H12         1.6742   -2.2350    5.3194 H         1 <0>         0.1416
     48 H13         1.1391   -0.7556    4.4867 H         1 <0>         0.1416
     49 H14        -0.2035   -2.1771    3.0651 H         1 <0>         0.4280
     50 H15        -3.0536   -2.6572    5.2756 H         1 <0>         0.1139
     51 H16        -2.5791   -2.5599    3.5628 H         1 <0>         0.0919
     52 H17        -2.9551   -4.9126    4.2500 H         1 <0>         0.0962
     53 H18        -1.2514   -4.6393    3.8127 H         1 <0>         0.0582
     54 H19        -2.3842   -4.6354    6.6471 H         1 <0>         0.0810
     55 H20        -1.4327   -5.9475    5.9113 H         1 <0>         0.0830
     56 H21        -0.0009   -4.4893    7.3157 H         1 <0>         0.0950
     57 H22         0.4737   -4.3921    5.6030 H         1 <0>         0.0572
     58 H23         0.3751   -2.1367    6.6286 H         1 <0>         0.0900
     59 H24        -1.3285   -2.4100    7.0659 H         1 <0>         0.1138
     60 H25        -0.5440   -0.4097    2.9616 H         1 <0>         0.1205
     61 H26        -0.9203    2.0210    2.9798 H         1 <0>         0.1418
     62 H27        -1.8010    3.1190    4.9971 H         1 <0>         0.1387
     63 H28        -1.9344   -0.6799    6.9827 H         1 <0>         0.1356
     64 H29        -2.5753    3.9998    6.7772 H         1 <0>         0.1378
     65 H30        -3.4575    4.6864    8.9853 H         1 <0>         0.1437
     66 H31        -3.7855    2.8274   10.7515 H         1 <0>         0.1941
     67 H32         1.8488   -0.4525    2.1667 H         1 <0>         0.3863
     68 H33         0.2245   -3.4935    3.9588 H         1 <0>         0.4283
@<TRIPOS>BOND
     1    1    2 1
     2    1   38 1
     3    1   39 1
     4    1   40 1
     5    2    3 2
     6    2    4 am
     7    4    5 1
     8    4   41 1
     9    5    6 1
    10    5    7 1
    11    5   16 1
    12    7    8 1
    13    7   42 1
    14    7   43 1
    15    8   13 ar
    16    8    9 ar
    17    9   10 ar
    18    9   44 1
    19   10   11 ar
    20   10   15 1
    21   11   12 ar
    22   11   45 1
    23   12   13 ar
    24   12   14 1
    25   13   46 1
    26   16   17 1
    27   16   18 1
    28   16   37 1
    29   18   19 1
    30   18   47 1
    31   18   48 1
    32   19   20 1
    33   19   49 1
    34   19   68 1
    35   20   25 1
    36   20   21 1
    37   20   26 1
    38   21   22 1
    39   21   50 1
    40   21   51 1
    41   22   23 1
    42   22   52 1
    43   22   53 1
    44   23   24 1
    45   23   54 1
    46   23   55 1
    47   24   25 1
    48   24   56 1
    49   24   57 1
    50   25   58 1
    51   25   59 1
    52   26   31 ar
    53   26   27 ar
    54   27   28 ar
    55   27   60 1
    56   28   29 ar
    57   28   61 1
    58   29   30 ar
    59   29   62 1
    60   30   31 ar
    61   30   32 1
    62   31   63 1
    63   32   36 1
    64   32   33 2
    65   33   34 1
    66   33   64 1
    67   34   35 2
    68   34   65 1
    69   35   36 1
    70   35   66 1
    71   37   67 1
@<TRIPOS>MOLECULE
CHEMBL564530
   73    76     0     0     0
SMALL
USER_CHARGES

@<TRIPOS>ATOM
      1 C1         -0.0187    1.5258    0.0104 C.3       1 <0>        -0.1746
      2 C2          0.0021   -0.0041    0.0020 C.3       1 <0>         0.1052
      3 N1          0.6878   -0.4765   -1.2033 N.pl3     1 <0>        -0.4724
      4 C3          0.0685   -0.8278   -2.3755 C.2       1 <0>         0.0827
      5 C4          0.9930   -1.1752   -3.2966 C.2       1 <0>        -0.1880
      6 C5          2.2718   -0.9860   -2.6664 C.ar      1 <0>        -0.0954
      7 C6          2.0512   -0.6285   -1.3300 C.ar      1 <0>         0.1009
      8 C7          3.1426   -0.5313   -0.4802 C.ar      1 <0>        -0.0835
      9 C8          4.4339   -0.6868   -0.9835 C.ar      1 <0>        -0.1075
     10 C9          4.6526   -0.9158   -2.3534 C.ar      1 <0>        -0.0713
     11 C10         3.5837   -1.0300   -3.1961 C.ar      1 <0>         0.1809
     12 N2          3.6828   -1.1194   -4.5872 N.pl3     1 <0>        -0.9532
     13 S1          3.2570   -2.4839   -5.3719 S.o2      1 <0>         2.6184
     14 O1          4.1529   -3.4627   -4.8634 O.2       1 <0>        -0.9526
     15 O2          3.3132   -2.1190   -6.7441 O.2       1 <0>        -0.9513
     16 C11         1.5620   -2.9461   -4.9476 C.3       1 <0>        -0.6330
     17 C12         0.6840   -1.7085   -4.6825 C.3       1 <0>        -0.0179
     18 C13         4.1759    0.0291   -5.3513 C.3       1 <0>         0.0856
     19 C14         5.5870   -0.6104   -0.0653 C.2       1 <0>         0.5677
     20 O3          6.7164   -0.7447   -0.4951 O.2       1 <0>        -0.4859
     21 N3          5.3880   -0.3916    1.2497 N.am      1 <0>        -0.7413
     22 C15         6.5324   -0.3158    2.1611 C.3       1 <0>         0.1260
     23 H1          7.3052   -1.0108    1.8326 H         1 <0>         0.1147
     24 C16         7.0927    1.1080    2.1588 C.3       1 <0>        -0.0838
     25 C17         7.6476    1.4273    0.7946 C.ar      1 <0>        -0.0807
     26 C18         8.9699    1.1483    0.5036 C.ar      1 <0>        -0.1057
     27 C19         9.4789    1.4412   -0.7478 C.ar      1 <0>        -0.1104
     28 C20         8.6655    2.0127   -1.7084 C.ar      1 <0>        -0.1114
     29 C21         7.3430    2.2908   -1.4177 C.ar      1 <0>        -0.1105
     30 C22         6.8328    1.9939   -0.1677 C.ar      1 <0>        -0.1081
     31 C23         6.0828   -0.6847    3.5762 C.3       1 <0>         0.0781
     32 H2          6.9343   -0.6282    4.2543 H         1 <0>         0.1446
     33 C24         5.5225   -2.1084    3.5784 C.3       1 <0>        -0.0501
     34 N4          5.0908   -2.4626    4.9372 N.4       1 <0>        -0.5004
     35 C25         4.5529   -3.8296    4.9393 C.3       1 <0>        -0.0129
     36 C26         4.1032   -4.1984    6.3545 C.3       1 <0>        -0.2031
     37 C27         3.5430   -5.6222    6.3567 C.3       1 <0>         0.4660
     38 F1          4.5348   -6.5143    5.9351 F         1 <0>        -0.1737
     39 F2          3.1318   -5.9595    7.6507 F         1 <0>        -0.1646
     40 F3          2.4501   -5.6946    5.4864 F         1 <0>        -0.1751
     41 O4          5.0697    0.2265    4.0068 O.3       1 <0>        -0.5432
     42 H3          1.0039    1.9031    0.0027 H         1 <0>         0.0624
     43 H4         -0.5459    1.8868   -0.8726 H         1 <0>         0.0673
     44 H5         -0.5289    1.8773    0.9072 H         1 <0>         0.0787
     45 H6          0.5293   -0.3651    0.8851 H         1 <0>         0.0839
     46 H7         -1.0205   -0.3814    0.0098 H         1 <0>         0.0965
     47 H8         -0.9992   -0.8264   -2.5379 H         1 <0>         0.1783
     48 H9          2.9928   -0.3350    0.5711 H         1 <0>         0.1192
     49 H10         5.6587   -1.0063   -2.7354 H         1 <0>         0.1475
     50 H11         1.1323   -3.5165   -5.7711 H         1 <0>         0.1465
     51 H12         1.5767   -3.5702   -4.0541 H         1 <0>         0.1359
     52 H13        -0.3679   -1.9881   -4.7399 H         1 <0>         0.0995
     53 H14         0.9006   -0.9410   -5.4256 H         1 <0>         0.0864
     54 H15         5.2594   -0.0380   -5.4497 H         1 <0>         0.0659
     55 H16         3.7205    0.0292   -6.3416 H         1 <0>         0.0980
     56 H17         3.9148    0.9507   -4.8312 H         1 <0>         0.0767
     57 H18         4.4869   -0.2845    1.5926 H         1 <0>         0.3891
     58 H19         6.2966    1.8120    2.4012 H         1 <0>         0.0837
     59 H20         7.8864    1.1872    2.9016 H         1 <0>         0.0855
     60 H21         9.6053    0.7019    1.2541 H         1 <0>         0.1141
     61 H22        10.5121    1.2239   -0.9749 H         1 <0>         0.1196
     62 H23         9.0634    2.2421   -2.6858 H         1 <0>         0.1196
     63 H24         6.7076    2.7376   -2.1681 H         1 <0>         0.1164
     64 H25         5.7986    2.2078    0.0582 H         1 <0>         0.1079
     65 H26         4.6710   -2.1648    2.9003 H         1 <0>         0.1383
     66 H27         6.2953   -2.8034    3.2500 H         1 <0>         0.1524
     67 H28         5.8790   -2.4103    5.5649 H         1 <0>         0.4341
     68 H29         3.7014   -3.8860    4.2612 H         1 <0>         0.1466
     69 H30         5.3256   -4.5246    4.6109 H         1 <0>         0.1491
     70 H31         4.9548   -4.1420    7.0326 H         1 <0>         0.1376
     71 H32         3.3305   -3.5034    6.6829 H         1 <0>         0.1365
     72 H33         4.2803    0.2297    3.4483 H         1 <0>         0.3836
     73 H34         4.3755   -1.8192    5.2412 H         1 <0>         0.4342
@<TRIPOS>BOND
     1    1    2 1
     2    1   42 1
     3    1   43 1
     4    1   44 1
     5    2    3 1
     6    2   45 1
     7    2   46 1
     8    3    7 1
     9    3    4 1
    10    4    5 2
    11    4   47 1
    12    5   17 1
    13    5    6 1
    14    6   11 ar
    15    6    7 ar
    16    7    8 ar
    17    8    9 ar
    18    8   48 1
    19    9   10 ar
    20    9   19 1
    21   10   11 ar
    22   10   49 1
    23   11   12 1
    24   12   13 1
    25   12   18 1
    26   13   14 2
    27   13   15 2
    28   13   16 1
    29   16   17 1
    30   16   50 1
    31   16   51 1
    32   17   52 1
    33   17   53 1
    34   18   54 1
    35   18   55 1
    36   18   56 1
    37   19   20 2
    38   19   21 am
    39   21   22 1
    40   21   57 1
    41   22   23 1
    42   22   24 1
    43   22   31 1
    44   24   25 1
    45   24   58 1
    46   24   59 1
    47   25   30 ar
    48   25   26 ar
    49   26   27 ar
    50   26   60 1
    51   27   28 ar
    52   27   61 1
    53   28   29 ar
    54   28   62 1
    55   29   30 ar
    56   29   63 1
    57   30   64 1
    58   31   32 1
    59   31   33 1
    60   31   41 1
    61   33   34 1
    62   33   65 1
    63   33   66 1
    64   34   35 1
    65   34   67 1
    66   34   73 1
    67   35   36 1
    68   35   68 1
    69   35   69 1
    70   36   37 1
    71   36   70 1
    72   36   71 1
    73   37   38 1
    74   37   39 1
    75   37   40 1
    76   41   72 1
@<TRIPOS>MOLECULE
CHEMBL564530__1
   72    75     0     0     0
SMALL
USER_CHARGES

@<TRIPOS>ATOM
      1 C1         -0.0187    1.5258    0.0104 C.3       1 <0>        -0.1725
      2 C2          0.0021   -0.0041    0.0020 C.3       1 <0>         0.1024
      3 N1         -1.3723   -0.5112    0.0124 N.pl3     1 <0>        -0.4707
      4 C3         -2.0690   -0.8761    1.1360 C.2       1 <0>         0.0798
      5 C4         -3.3197   -1.2562    0.7971 C.2       1 <0>        -0.1931
      6 C5         -3.4179   -1.0743   -0.6262 C.ar      1 <0>        -0.0981
      7 C6         -2.1596   -0.6869   -1.1045 C.ar      1 <0>         0.1024
      8 C7         -1.9717   -0.5897   -2.4749 C.ar      1 <0>        -0.0791
      9 C8         -3.0488   -0.7753   -3.3410 C.ar      1 <0>        -0.1019
     10 C9         -4.3384   -1.0350   -2.8447 C.ar      1 <0>        -0.0675
     11 C10        -4.5310   -1.1494   -1.4973 C.ar      1 <0>         0.1703
     12 N2         -5.7827   -1.2682   -0.8874 N.pl3     1 <0>        -0.9507
     13 S1         -6.2155   -2.6416   -0.1224 S.o2      1 <0>         2.6200
     14 O1         -6.1977   -3.6234   -1.1496 O.2       1 <0>        -0.9526
     15 O2         -7.4412   -2.3055    0.5131 O.2       1 <0>        -0.9573
     16 C11        -4.9903   -3.0693    1.1355 C.3       1 <0>        -0.6336
     17 C12        -4.3519   -1.8122    1.7594 C.3       1 <0>        -0.0141
     18 C13        -6.7196   -0.1429   -0.9364 C.3       1 <0>         0.0872
     19 C14        -2.8319   -0.6985   -4.7990 C.2       1 <0>         0.5641
     20 O3         -3.7651   -0.8590   -5.5618 O.2       1 <0>        -0.5006
     21 N3         -1.5994   -0.4505   -5.2848 N.am      1 <0>        -0.7269
     22 C15        -1.3841   -0.3742   -6.7319 C.3       1 <0>         0.1229
     23 H1         -2.0372   -1.0876   -7.2345 H         1 <0>         0.1014
     24 C16        -1.7018    1.0403   -7.2209 C.3       1 <0>        -0.0864
     25 C17        -3.1683    1.3236   -7.0206 C.ar      1 <0>        -0.0674
     26 C18        -4.0740    1.0183   -8.0193 C.ar      1 <0>        -0.1073
     27 C19        -5.4192    1.2781   -7.8355 C.ar      1 <0>        -0.1124
     28 C20        -5.8588    1.8429   -6.6528 C.ar      1 <0>        -0.1197
     29 C21        -4.9532    2.1473   -5.6537 C.ar      1 <0>        -0.1121
     30 C22        -3.6085    1.8835   -5.8358 C.ar      1 <0>        -0.1085
     31 C23         0.0751   -0.7077   -7.0487 C.3       1 <0>         0.1051
     32 H2          0.2353   -0.6510   -8.1254 H         1 <0>         0.1149
     33 C24         0.3927   -2.1222   -6.5596 C.3       1 <0>         0.0250
     34 N4          1.7938   -2.4424   -6.8638 N.3       1 <0>        -0.6753
     35 C25         2.1354   -3.7963   -6.4075 C.3       1 <0>         0.0548
     36 C26         3.5989   -4.0927   -6.7410 C.3       1 <0>        -0.1654
     37 C27         3.9547   -5.5028   -6.2657 C.3       1 <0>         0.4541
     38 F1          3.1320   -6.4334   -6.9094 F         1 <0>        -0.1841
     39 F2          5.2929   -5.7739   -6.5706 F         1 <0>        -0.1822
     40 F3          3.7647   -5.5906   -4.8824 F         1 <0>        -0.1831
     41 O4          0.9313    0.2276   -6.3898 O.3       1 <0>        -0.5365
     42 H3          1.0039    1.9031    0.0027 H         1 <0>         0.0782
     43 H4         -0.5459    1.8868   -0.8726 H         1 <0>         0.0635
     44 H5         -0.5289    1.8773    0.9072 H         1 <0>         0.0639
     45 H6          0.5123   -0.3556   -0.8948 H         1 <0>         0.0894
     46 H7          0.5293   -0.3651    0.8851 H         1 <0>         0.0947
     47 H8         -1.6758   -0.8620    2.1418 H         1 <0>         0.1753
     48 H9         -0.9914   -0.3701   -2.8714 H         1 <0>         0.1249
     49 H10        -5.1696   -1.1488   -3.5248 H         1 <0>         0.1463
     50 H11        -5.4746   -3.6497    1.9208 H         1 <0>         0.1436
     51 H12        -4.2080   -3.6754    0.6784 H         1 <0>         0.1368
     52 H13        -3.8689   -2.0765    2.7001 H         1 <0>         0.0966
     53 H14        -5.1227   -1.0632    1.9407 H         1 <0>         0.0835
     54 H15        -7.3445   -0.2289   -1.8254 H         1 <0>         0.0643
     55 H16        -7.3494   -0.1555   -0.0469 H         1 <0>         0.0950
     56 H17        -6.1618    0.7928   -0.9735 H         1 <0>         0.0764
     57 H18        -0.8550   -0.3224   -4.6763 H         1 <0>         0.3917
     58 H19        -1.1118    1.7614   -6.6552 H         1 <0>         0.0812
     59 H20        -1.4573    1.1220   -8.2800 H         1 <0>         0.0822
     60 H21        -3.7305    0.5771   -8.9433 H         1 <0>         0.1136
     61 H22        -6.1267    1.0403   -8.6161 H         1 <0>         0.1158
     62 H23        -6.9097    2.0465   -6.5095 H         1 <0>         0.1152
     63 H24        -5.2966    2.5889   -4.7299 H         1 <0>         0.1130
     64 H25        -2.9015    2.1179   -5.0538 H         1 <0>         0.1080
     65 H26         0.2326   -2.1789   -5.4830 H         1 <0>         0.0795
     66 H27        -0.2604   -2.8356   -7.0622 H         1 <0>         0.0468
     67 H28         1.9838   -2.3341   -7.8488 H         1 <0>         0.3463
     68 H29         1.9873   -3.8646   -5.3297 H         1 <0>         0.0858
     69 H30         1.4944   -4.5213   -6.9090 H         1 <0>         0.0458
     70 H31         3.7470   -4.0244   -7.8187 H         1 <0>         0.1098
     71 H32         4.2399   -3.3677   -6.2394 H         1 <0>         0.1202
     72 H33         0.8421    0.2318   -5.4269 H         1 <0>         0.3671
@<TRIPOS>BOND
     1    1    2 1
     2    1   42 1
     3    1   43 1
     4    1   44 1
     5    2    3 1
     6    2   45 1
     7    2   46 1
     8    3    7 1
     9    3    4 1
    10    4    5 2
    11    4   47 1
    12    5   17 1
    13    5    6 1
    14    6   11 ar
    15    6    7 ar
    16    7    8 ar
    17    8    9 ar
    18    8   48 1
    19    9   10 ar
    20    9   19 1
    21   10   11 ar
    22   10   49 1
    23   11   12 1
    24   12   13 1
    25   12   18 1
    26   13   14 2
    27   13   15 2
    28   13   16 1
    29   16   17 1
    30   16   50 1
    31   16   51 1
    32   17   52 1
    33   17   53 1
    34   18   54 1
    35   18   55 1
    36   18   56 1
    37   19   20 2
    38   19   21 am
    39   21   22 1
    40   21   57 1
    41   22   23 1
    42   22   24 1
    43   22   31 1
    44   24   25 1
    45   24   58 1
    46   24   59 1
    47   25   30 ar
    48   25   26 ar
    49   26   27 ar
    50   26   60 1
    51   27   28 ar
    52   27   61 1
    53   28   29 ar
    54   28   62 1
    55   29   30 ar
    56   29   63 1
    57   30   64 1
    58   31   32 1
    59   31   33 1
    60   31   41 1
    61   33   34 1
    62   33   65 1
    63   33   66 1
    64   34   35 1
    65   34   67 1
    66   35   36 1
    67   35   68 1
    68   35   69 1
    69   36   37 1
    70   36   70 1
    71   36   71 1
    72   37   38 1
    73   37   39 1
    74   37   40 1
    75   41   72 1
@<TRIPOS>MOLECULE
CHEMBL402576
   73    78     0     0     0
SMALL
USER_CHARGES

@<TRIPOS>ATOM
      1 C1          0.2606    1.3635   -1.0649 C.ar      1 <0>        -0.1256
      2 C2          0.4263    0.1081   -1.6224 C.ar      1 <0>        -0.1117
      3 C3          1.5942   -0.5952   -1.4111 C.ar      1 <0>        -0.1401
      4 C4          2.6098   -0.0376   -0.6331 C.ar      1 <0>         0.0002
      5 C5          2.4364    1.2292   -0.0736 C.ar      1 <0>        -0.1042
      6 C6          1.2636    1.9220   -0.2926 C.ar      1 <0>        -0.1078
      7 C7          3.8641   -0.7859   -0.4021 C.2       1 <0>         0.0410
      8 C8          5.0584   -0.2516   -0.0224 C.2       1 <0>        -0.1633
      9 C9          5.9759   -1.3097    0.0820 C.2       1 <0>        -0.1958
     10 C10         5.3247   -2.4501   -0.2333 C.2       1 <0>         0.0603
     11 N1          4.0297   -2.1416   -0.5263 N.pl3     1 <0>        -0.4169
     12 C11         2.9895   -3.0980   -0.9128 C.3       1 <0>         0.0685
     13 C12         2.9962   -3.2697   -2.4100 C.2       1 <0>         0.5036
     14 O1          3.7932   -2.6525   -3.0889 O.2       1 <0>        -0.5150
     15 N2          2.1289   -4.0976   -2.9890 N.2       1 <0>        -0.7061
     16 C13         1.2949   -3.6429   -3.9157 C.2       1 <0>         0.7032
     17 N3          0.3305   -4.4598   -4.4240 N.pl3     1 <0>        -0.8226
     18 N4          1.4031   -2.3591   -4.3586 N.pl3     1 <0>        -0.7363
     19 C14         0.4526   -1.8426   -5.3465 C.3       1 <0>         0.1340
     20 C15         0.9273   -2.2128   -6.7531 C.3       1 <0>        -0.1337
     21 C16        -0.0653   -1.6734   -7.7849 C.3       1 <0>        -0.1106
     22 C17        -0.1532   -0.1509   -7.6605 C.3       1 <0>         0.1016
     23 C18        -0.6279    0.2193   -6.2540 C.3       1 <0>        -0.1470
     24 C19         0.3648   -0.3202   -5.2222 C.3       1 <0>        -0.1269
     25 O2         -1.0803    0.3529   -8.6242 O.3       1 <0>        -0.5666
     26 C20         5.9268   -3.8315   -0.2523 C.3       1 <0>         0.0168
     27 C21         5.2768   -4.6862    0.8376 C.3       1 <0>        -0.1040
     28 C22         5.8881   -6.0887    0.8182 C.3       1 <0>        -0.0846
     29 C23         7.3933   -5.9926    1.0752 C.3       1 <0>        -0.1081
     30 C24         8.0433   -5.1378   -0.0147 C.3       1 <0>        -0.0854
     31 C25         7.4320   -3.7354    0.0047 C.3       1 <0>        -0.0943
     32 C26         7.7993   -5.7816   -1.3810 C.3       1 <0>        -0.1087
     33 C27         6.2941   -5.8778   -1.6381 C.3       1 <0>        -0.0846
     34 C28         5.6442   -6.7325   -0.5482 C.3       1 <0>        -0.1087
     35 C29         5.6828   -4.4753   -1.6187 C.3       1 <0>        -0.1002
     36 H1         -0.6538    1.9118   -1.2370 H         1 <0>         0.1226
     37 H2         -0.3606   -0.3224   -2.2240 H         1 <0>         0.1185
     38 H3          1.7221   -1.5752   -1.8465 H         1 <0>         0.1114
     39 H4          3.2184    1.6660    0.5297 H         1 <0>         0.1289
     40 H5          1.1282    2.9023    0.1397 H         1 <0>         0.1267
     41 H6          5.2619    0.7926    0.1638 H         1 <0>         0.1366
     42 H7          7.0153   -1.2263    0.3632 H         1 <0>         0.1377
     43 H8          3.1840   -4.0587   -0.4361 H         1 <0>         0.1223
     44 H9          2.0162   -2.7247   -0.5942 H         1 <0>         0.1162
     45 H10         0.2535   -5.3739   -4.1086 H         1 <0>         0.4256
     46 H11        -0.2791   -4.1275   -5.1014 H         1 <0>         0.4110
     47 H12         2.1095   -1.7871   -4.0199 H         1 <0>         0.4230
     48 H13        -0.5301   -2.2790   -5.1681 H         1 <0>         0.0853
     49 H14         1.9101   -1.7764   -6.9316 H         1 <0>         0.0755
     50 H15         0.9900   -3.2974   -6.8417 H         1 <0>         0.0746
     51 H16         0.2729   -1.9371   -8.7869 H         1 <0>         0.0774
     52 H17        -1.0480   -2.1098   -7.6064 H         1 <0>         0.0735
     53 H18         0.8296    0.2855   -7.8390 H         1 <0>         0.0573
     54 H19        -0.6905    1.3039   -6.1654 H         1 <0>         0.0740
     55 H20        -1.6106   -0.2171   -6.0755 H         1 <0>         0.0756
     56 H21         0.0266   -0.0564   -4.2201 H         1 <0>         0.0788
     57 H22         1.3475    0.1163   -5.4007 H         1 <0>         0.0742
     58 H23        -1.1866    1.3138   -8.6027 H         1 <0>         0.3806
     59 H24         5.4506   -4.2276    1.8110 H         1 <0>         0.0679
     60 H25         4.2045   -4.7547    0.6544 H         1 <0>         0.0570
     61 H26         5.4251   -6.6976    1.5946 H         1 <0>         0.0713
     62 H27         7.5671   -5.5339    2.0486 H         1 <0>         0.0628
     63 H28         7.8288   -6.9917    1.0614 H         1 <0>         0.0628
     64 H29         9.1156   -5.0693    0.1685 H         1 <0>         0.0726
     65 H30         7.8950   -3.1264   -0.7717 H         1 <0>         0.0675
     66 H31         7.6058   -3.2767    0.9781 H         1 <0>         0.0682
     67 H32         8.2624   -5.1727   -2.1575 H         1 <0>         0.0615
     68 H33         8.2348   -6.7808   -1.3948 H         1 <0>         0.0620
     69 H34         6.1203   -6.3364   -2.6115 H         1 <0>         0.0683
     70 H35         6.0797   -7.7316   -0.5620 H         1 <0>         0.0630
     71 H36         4.5719   -6.8010   -0.7313 H         1 <0>         0.0606
     72 H37         4.6105   -4.5438   -1.8018 H         1 <0>         0.0608
     73 H38         6.1459   -3.8664   -2.3951 H         1 <0>         0.0661
@<TRIPOS>BOND
     1    1    6 ar
     2    1    2 ar
     3    1   36 1
     4    2    3 ar
     5    2   37 1
     6    3    4 ar
     7    3   38 1
     8    4    5 ar
     9    4    7 1
    10    5    6 ar
    11    5   39 1
    12    6   40 1
    13    7   11 1
    14    7    8 2
    15    8    9 1
    16    8   41 1
    17    9   10 2
    18    9   42 1
    19   10   11 1
    20   10   26 1
    21   11   12 1
    22   12   13 1
    23   12   43 1
    24   12   44 1
    25   13   14 2
    26   13   15 1
    27   15   16 2
    28   16   17 1
    29   16   18 1
    30   17   45 1
    31   17   46 1
    32   18   19 1
    33   18   47 1
    34   19   24 1
    35   19   20 1
    36   19   48 1
    37   20   21 1
    38   20   49 1
    39   20   50 1
    40   21   22 1
    41   21   51 1
    42   21   52 1
    43   22   23 1
    44   22   25 1
    45   22   53 1
    46   23   24 1
    47   23   54 1
    48   23   55 1
    49   24   56 1
    50   24   57 1
    51   25   58 1
    52   26   31 1
    53   26   35 1
    54   26   27 1
    55   27   28 1
    56   27   59 1
    57   27   60 1
    58   28   34 1
    59   28   29 1
    60   28   61 1
    61   29   30 1
    62   29   62 1
    63   29   63 1
    64   30   31 1
    65   30   32 1
    66   30   64 1
    67   31   65 1
    68   31   66 1
    69   32   33 1
    70   32   67 1
    71   32   68 1
    72   33   34 1
    73   33   35 1
    74   33   69 1
    75   34   70 1
    76   34   71 1
    77   35   72 1
    78   35   73 1
@<TRIPOS>MOLECULE
CHEMBL402576__1
   73    78     0     0     0
SMALL
USER_CHARGES

@<TRIPOS>ATOM
      1 C1          0.2643    1.6665   -0.0794 C.ar      1 <0>        -0.1247
      2 C2          0.2373    0.3314    0.2825 C.ar      1 <0>        -0.1113
      3 C3          1.3993   -0.4123    0.2745 C.ar      1 <0>        -0.1297
      4 C4          2.6038    0.1851   -0.0997 C.ar      1 <0>        -0.0101
      5 C5          2.6242    1.5323   -0.4636 C.ar      1 <0>        -0.1050
      6 C6          1.4551    2.2647   -0.4514 C.ar      1 <0>        -0.1138
      7 C7          3.8531   -0.6058   -0.1101 C.2       1 <0>         0.0580
      8 C8          5.1195   -0.1051   -0.0713 C.2       1 <0>        -0.1705
      9 C9          6.0023   -1.1970   -0.0980 C.2       1 <0>        -0.1899
     10 C10         5.2596   -2.3238   -0.1519 C.2       1 <0>         0.0438
     11 N1          3.9423   -1.9735   -0.1546 N.pl3     1 <0>        -0.4177
     12 C11         2.8107   -2.9029   -0.2007 C.3       1 <0>         0.0712
     13 C12         2.3455   -3.1980    1.2020 C.2       1 <0>         0.5030
     14 O1          2.9054   -2.6816    2.1492 O.2       1 <0>        -0.5159
     15 N2          1.3212   -4.0243    1.4037 N.2       1 <0>        -0.7074
     16 C13         1.4808   -5.1084    2.1522 C.2       1 <0>         0.7064
     17 N3          2.6598   -5.3210    2.8006 N.pl3     1 <0>        -0.8651
     18 N4          0.4654   -6.0088    2.2722 N.pl3     1 <0>        -0.6968
     19 C14         0.6416   -7.2056    3.0985 C.3       1 <0>         0.1389
     20 C15         1.3190   -8.3007    2.2722 C.3       1 <0>        -0.1346
     21 C16         1.5029   -9.5506    3.1351 C.3       1 <0>        -0.1119
     22 C17         0.1366  -10.0450    3.6145 C.3       1 <0>         0.1022
     23 C18        -0.5408   -8.9499    4.4409 C.3       1 <0>        -0.1497
     24 C19        -0.7247   -7.7000    3.5779 C.3       1 <0>        -0.1228
     25 O2          0.3084  -11.2124    4.4205 O.3       1 <0>        -0.5667
     26 C20         5.7966   -3.7312   -0.1959 C.3       1 <0>         0.0204
     27 C21         5.1470   -4.5599    0.9141 C.3       1 <0>        -0.1068
     28 C22         5.6923   -5.9888    0.8694 C.3       1 <0>        -0.0831
     29 C23         7.2084   -5.9627    1.0733 C.3       1 <0>        -0.1090
     30 C24         7.8580   -5.1340   -0.0367 C.3       1 <0>        -0.0858
     31 C25         7.3128   -3.7051    0.0079 C.3       1 <0>        -0.0949
     32 C26         7.5368   -5.7602   -1.3953 C.3       1 <0>        -0.1084
     33 C27         6.0206   -5.7863   -1.5991 C.3       1 <0>        -0.0851
     34 C28         5.3710   -6.6150   -0.4891 C.3       1 <0>        -0.1080
     35 C29         5.4754   -4.3574   -1.5544 C.3       1 <0>        -0.1041
     36 H1         -0.6489    2.2431   -0.0757 H         1 <0>         0.1223
     37 H2         -0.6955   -0.1296    0.5722 H         1 <0>         0.1221
     38 H3          1.3769   -1.4543    0.5575 H         1 <0>         0.1220
     39 H4          3.5531    2.0005   -0.7539 H         1 <0>         0.1271
     40 H5          1.4694    3.3073   -0.7328 H         1 <0>         0.1254
     41 H6          5.3939    0.9386   -0.0280 H         1 <0>         0.1368
     42 H7          7.0809   -1.1451   -0.0795 H         1 <0>         0.1372
     43 H8          1.9948   -2.4540   -0.7672 H         1 <0>         0.1184
     44 H9          3.1212   -3.8297   -0.6830 H         1 <0>         0.1190
     45 H10         3.3528   -4.6425    2.7819 H         1 <0>         0.4234
     46 H11         2.8064   -6.1509    3.2810 H         1 <0>         0.4003
     47 H12        -0.3741   -5.8574    1.8105 H         1 <0>         0.4246
     48 H13         1.2634   -6.9638    3.9604 H         1 <0>         0.0857
     49 H14         0.6972   -8.5426    1.4102 H         1 <0>         0.0777
     50 H15         2.2923   -7.9485    1.9306 H         1 <0>         0.0735
     51 H16         1.9855  -10.3308    2.5464 H         1 <0>         0.0780
     52 H17         2.1247   -9.3088    3.9971 H         1 <0>         0.0734
     53 H18        -0.4852  -10.2868    2.7526 H         1 <0>         0.0581
     54 H19        -1.5141   -9.3021    4.7824 H         1 <0>         0.0750
     55 H20         0.0810   -8.7080    5.3028 H         1 <0>         0.0758
     56 H21        -1.2073   -6.9198    4.1666 H         1 <0>         0.0793
     57 H22        -1.3465   -7.9418    2.7159 H         1 <0>         0.0771
     58 H23        -0.5186  -11.5813    4.7598 H         1 <0>         0.3810
     59 H24         5.3759   -4.1138    1.8820 H         1 <0>         0.0662
     60 H25         4.0669   -4.5785    0.7689 H         1 <0>         0.0530
     61 H26         5.2295   -6.5792    1.6602 H         1 <0>         0.0662
     62 H27         7.4373   -5.5166    2.0411 H         1 <0>         0.0628
     63 H28         7.5968   -6.9806    1.0414 H         1 <0>         0.0637
     64 H29         8.9382   -5.1154    0.1085 H         1 <0>         0.0741
     65 H30         7.7756   -3.1147   -0.7829 H         1 <0>         0.0703
     66 H31         7.5417   -3.2590    0.9758 H         1 <0>         0.0686
     67 H32         7.9996   -5.1698   -2.1860 H         1 <0>         0.0643
     68 H33         7.9252   -6.7781   -1.4271 H         1 <0>         0.0631
     69 H34         5.7917   -6.2324   -2.5669 H         1 <0>         0.0721
     70 H35         5.7594   -7.6329   -0.5209 H         1 <0>         0.0648
     71 H36         4.2909   -6.6336   -0.6343 H         1 <0>         0.0567
     72 H37         4.3952   -4.3760   -1.6996 H         1 <0>         0.0558
     73 H38         5.9382   -3.7670   -2.3452 H         1 <0>         0.0705
@<TRIPOS>BOND
     1    1    6 ar
     2    1    2 ar
     3    1   36 1
     4    2    3 ar
     5    2   37 1
     6    3    4 ar
     7    3   38 1
     8    4    5 ar
     9    4    7 1
    10    5    6 ar
    11    5   39 1
    12    6   40 1
    13    7   11 1
    14    7    8 2
    15    8    9 1
    16    8   41 1
    17    9   10 2
    18    9   42 1
    19   10   11 1
    20   10   26 1
    21   11   12 1
    22   12   13 1
    23   12   43 1
    24   12   44 1
    25   13   14 2
    26   13   15 1
    27   15   16 2
    28   16   17 1
    29   16   18 1
    30   17   45 1
    31   17   46 1
    32   18   19 1
    33   18   47 1
    34   19   24 1
    35   19   20 1
    36   19   48 1
    37   20   21 1
    38   20   49 1
    39   20   50 1
    40   21   22 1
    41   21   51 1
    42   21   52 1
    43   22   23 1
    44   22   25 1
    45   22   53 1
    46   23   24 1
    47   23   54 1
    48   23   55 1
    49   24   56 1
    50   24   57 1
    51   25   58 1
    52   26   31 1
    53   26   35 1
    54   26   27 1
    55   27   28 1
    56   27   59 1
    57   27   60 1
    58   28   34 1
    59   28   29 1
    60   28   61 1
    61   29   30 1
    62   29   62 1
    63   29   63 1
    64   30   31 1
    65   30   32 1
    66   30   64 1
    67   31   65 1
    68   31   66 1
    69   32   33 1
    70   32   67 1
    71   32   68 1
    72   33   34 1
    73   33   35 1
    74   33   69 1
    75   34   70 1
    76   34   71 1
    77   35   72 1
    78   35   73 1
@<TRIPOS>MOLECULE
CHEMBL316181
   91    92     0     0     0
SMALL
USER_CHARGES

@<TRIPOS>ATOM
      1 C1          1.6024   -2.3050   -1.2361 C.3       1 <0>        -0.1473
      2 C2          0.8469   -1.6080   -0.1029 C.3       1 <0>        -0.1074
      3 H1          1.0720   -0.5416   -0.1182 H         1 <0>         0.1069
      4 C3          1.2798   -2.2014    1.2393 C.3       1 <0>        -0.1294
      5 C4          0.6422   -1.4040    2.3788 C.3       1 <0>         0.0944
      6 H2         -0.4411   -1.4003    2.2580 H         1 <0>         0.1325
      7 C5          1.0039   -2.0499    3.7179 C.3       1 <0>         0.1262
      8 H3          0.6325   -3.0744    3.7391 H         1 <0>         0.1006
      9 C6          0.3663   -1.2525    4.8574 C.3       1 <0>        -0.0887
     10 C7          0.6192   -1.9562    6.1658 C.ar      1 <0>        -0.0627
     11 C8         -0.2781   -2.9012    6.6270 C.ar      1 <0>        -0.1066
     12 C9         -0.0462   -3.5467    7.8272 C.ar      1 <0>        -0.1117
     13 C10         1.0833   -3.2477    8.5658 C.ar      1 <0>        -0.1209
     14 C11         1.9812   -2.3034    8.1041 C.ar      1 <0>        -0.1110
     15 C12         1.7514   -1.6609    6.9019 C.ar      1 <0>        -0.1117
     16 N1          2.4599   -2.0548    3.8802 N.am      1 <0>        -0.7226
     17 C13         3.0460   -2.9708    4.6763 C.2       1 <0>         0.5139
     18 O1          2.3682   -3.7910    5.2583 O.2       1 <0>        -0.5071
     19 C14         4.5438   -2.9758    4.8433 C.3       1 <0>         0.1253
     20 H4          4.8662   -2.0210    5.2587 H         1 <0>         0.1108
     21 C15         5.2080   -3.1902    3.4818 C.3       1 <0>        -0.1608
     22 N2          4.9302   -4.0587    5.7511 N.am      1 <0>        -0.7075
     23 C16         6.0827   -3.9772    6.4452 C.2       1 <0>         0.4928
     24 O2          6.7997   -3.0074    6.3183 O.2       1 <0>        -0.5323
     25 C17         6.4802   -5.0912    7.3791 C.3       1 <0>         0.0978
     26 H5          6.4903   -6.0355    6.8347 H         1 <0>         0.1240
     27 C18         5.4745   -5.1762    8.5289 C.3       1 <0>        -0.1220
     28 C19         5.8781   -6.3071    9.4770 C.3       1 <0>        -0.1434
     29 C20         5.4603   -3.8507    9.2931 C.3       1 <0>        -0.1549
     30 O3          7.7833   -4.8302    7.9043 O.3       1 <0>        -0.5330
     31 O4          1.1291   -0.0608    2.3509 O.3       1 <0>        -0.5518
     32 C21        -0.6349   -1.8113   -0.2875 C.2       1 <0>         0.5247
     33 O5         -1.2811   -2.3752    0.5700 O.2       1 <0>        -0.5333
     34 N3         -1.2420   -1.3663   -1.4055 N.am      1 <0>        -0.7097
     35 C22        -2.6825   -1.5640   -1.5849 C.3       1 <0>         0.1329
     36 H6         -2.9761   -2.5170   -1.1449 H         1 <0>         0.1112
     37 C23        -3.4427   -0.4286   -0.8965 C.3       1 <0>        -0.0995
     38 C24        -3.1927   -0.4886    0.6118 C.3       1 <0>        -0.1383
     39 C25        -2.9552    0.9154   -1.4412 C.3       1 <0>        -0.1487
     40 C26        -3.0095   -1.5679   -3.0560 C.2       1 <0>         0.5148
     41 O6         -2.2242   -1.1001   -3.8531 O.2       1 <0>        -0.5319
     42 N4         -4.1748   -2.0911   -3.4859 N.am      1 <0>        -0.7215
     43 C27        -4.4421   -2.2029   -4.9220 C.3       1 <0>         0.1623
     44 C28        -5.8026   -2.8156   -5.1335 C.ar      1 <0>        -0.1139
     45 C29        -5.9348   -4.1881   -5.2316 C.ar      1 <0>        -0.1002
     46 C30        -7.1827   -4.7501   -5.4257 C.ar      1 <0>        -0.1210
     47 C31        -8.2985   -3.9397   -5.5212 C.ar      1 <0>        -0.1095
     48 C32        -8.1664   -2.5672   -5.4222 C.ar      1 <0>        -0.1210
     49 C33        -6.9190   -2.0054   -5.2239 C.ar      1 <0>        -0.0998
     50 H7          1.4398   -3.3810   -1.1732 H         1 <0>         0.0612
     51 H8          1.2378   -1.9380   -2.1955 H         1 <0>         0.0631
     52 H9          2.6678   -2.0927   -1.1470 H         1 <0>         0.0695
     53 H10         0.9568   -3.2408    1.2981 H         1 <0>         0.0840
     54 H11         2.3653   -2.1528    1.3248 H         1 <0>         0.0734
     55 H12         0.8032   -0.2544    4.8913 H         1 <0>         0.0795
     56 H13        -0.7077   -1.1734    4.6890 H         1 <0>         0.0821
     57 H14        -1.1606   -3.1348    6.0499 H         1 <0>         0.1142
     58 H15        -0.7476   -4.2844    8.1879 H         1 <0>         0.1153
     59 H16         1.2642   -3.7515    9.5038 H         1 <0>         0.1137
     60 H17         2.8635   -2.0695    8.6814 H         1 <0>         0.1108
     61 H18         2.4547   -0.9259    6.5394 H         1 <0>         0.1063
     62 H19         3.0020   -1.3988    3.4148 H         1 <0>         0.3943
     63 H20         4.8855   -4.1449    3.0665 H         1 <0>         0.0651
     64 H21         4.9205   -2.3844    2.8064 H         1 <0>         0.0697
     65 H22         6.2913   -3.1938    3.6026 H         1 <0>         0.0751
     66 H23         4.3567   -4.8344    5.8527 H         1 <0>         0.4106
     67 H24         4.4805   -5.3752    8.1283 H         1 <0>         0.0859
     68 H25         6.8721   -6.1081    9.8777 H         1 <0>         0.0645
     69 H26         5.1616   -6.3677   10.2962 H         1 <0>         0.0592
     70 H27         5.8882   -7.2514    8.9326 H         1 <0>         0.0576
     71 H28         6.4543   -3.6517    9.6937 H         1 <0>         0.0592
     72 H29         5.1728   -3.0450    8.6176 H         1 <0>         0.0555
     73 H30         4.7438   -3.9112   10.1122 H         1 <0>         0.0658
     74 H31         7.8485   -4.0037    8.4020 H         1 <0>         0.3821
     75 H32         2.0880    0.0122    2.4532 H         1 <0>         0.3656
     76 H33        -0.7252   -0.9153   -2.0913 H         1 <0>         0.4104
     77 H34        -4.5097   -0.5346   -1.0924 H         1 <0>         0.0804
     78 H35        -2.1468   -0.2595    0.8161 H         1 <0>         0.0576
     79 H36        -3.8291    0.2395    1.1148 H         1 <0>         0.0522
     80 H37        -3.4241   -1.4885    0.9790 H         1 <0>         0.0665
     81 H38        -3.1333    0.9581   -2.5157 H         1 <0>         0.0552
     82 H39        -3.4968    1.7242   -0.9507 H         1 <0>         0.0595
     83 H40        -1.8882    1.0214   -1.2452 H         1 <0>         0.0594
     84 H41        -4.8365   -2.3937   -2.8444 H         1 <0>         0.4046
     85 H42        -4.4156   -1.2117   -5.3747 H         1 <0>         0.0794
     86 H43        -3.6834   -2.8341   -5.3847 H         1 <0>         0.0778
     87 H44        -5.0631   -4.8213   -5.1570 H         1 <0>         0.1239
     88 H45        -7.2860   -5.8224   -5.5030 H         1 <0>         0.1253
     89 H46        -9.2734   -4.3787   -5.6736 H         1 <0>         0.1246
     90 H47        -9.0380   -1.9340   -5.4972 H         1 <0>         0.1254
     91 H48        -6.8162   -0.9334   -5.1428 H         1 <0>         0.1242
@<TRIPOS>BOND
     1    1    2 1
     2    1   50 1
     3    1   51 1
     4    1   52 1
     5    2    3 1
     6    2    4 1
     7    2   32 1
     8    4    5 1
     9    4   53 1
    10    4   54 1
    11    5    6 1
    12    5    7 1
    13    5   31 1
    14    7    8 1
    15    7    9 1
    16    7   16 1
    17    9   10 1
    18    9   55 1
    19    9   56 1
    20   10   15 ar
    21   10   11 ar
    22   11   12 ar
    23   11   57 1
    24   12   13 ar
    25   12   58 1
    26   13   14 ar
    27   13   59 1
    28   14   15 ar
    29   14   60 1
    30   15   61 1
    31   16   17 am
    32   16   62 1
    33   17   18 2
    34   17   19 1
    35   19   20 1
    36   19   21 1
    37   19   22 1
    38   21   63 1
    39   21   64 1
    40   21   65 1
    41   22   23 am
    42   22   66 1
    43   23   24 2
    44   23   25 1
    45   25   26 1
    46   25   27 1
    47   25   30 1
    48   27   28 1
    49   27   29 1
    50   27   67 1
    51   28   68 1
    52   28   69 1
    53   28   70 1
    54   29   71 1
    55   29   72 1
    56   29   73 1
    57   30   74 1
    58   31   75 1
    59   32   33 2
    60   32   34 am
    61   34   35 1
    62   34   76 1
    63   35   36 1
    64   35   37 1
    65   35   40 1
    66   37   38 1
    67   37   39 1
    68   37   77 1
    69   38   78 1
    70   38   79 1
    71   38   80 1
    72   39   81 1
    73   39   82 1
    74   39   83 1
    75   40   41 2
    76   40   42 am
    77   42   43 1
    78   42   84 1
    79   43   44 1
    80   43   85 1
    81   43   86 1
    82   44   49 ar
    83   44   45 ar
    84   45   46 ar
    85   45   87 1
    86   46   47 ar
    87   46   88 1
    88   47   48 ar
    89   47   89 1
    90   48   49 ar
    91   48   90 1
    92   49   91 1
@<TRIPOS>MOLECULE
CHEMBL598290
   56    59     0     0     0
SMALL
USER_CHARGES

@<TRIPOS>ATOM
      1 C1          0.9493   -0.3525    1.0055 C.3       1 <0>        -0.1467
      2 C2          0.1093   -1.6252    1.1298 C.3       1 <0>        -0.0780
      3 C3         -1.2677   -1.3748    0.5710 C.ar      1 <0>         0.1596
      4 C4         -1.7648   -2.2033   -0.4172 C.ar      1 <0>        -0.1659
      5 C5         -3.0328   -1.9643   -0.9246 C.ar      1 <0>        -0.0607
      6 C6         -3.7563   -0.8962   -0.4166 C.ar      1 <0>        -0.1559
      7 C7         -3.1936   -0.1108    0.5716 C.ar      1 <0>         0.1645
      8 N1         -1.9865   -0.3710    1.0344 N.ar      1 <0>        -0.4567
      9 C8         -3.9707    1.0531    1.1307 C.3       1 <0>        -0.0800
     10 C9         -4.0676    0.9180    2.6516 C.3       1 <0>        -0.1464
     11 C10        -3.6107   -2.8442   -2.0030 C.3       1 <0>         0.2189
     12 C11        -4.2319   -2.0026   -3.1002 C.2       1 <0>         0.5456
     13 O1         -5.1558   -1.2240   -2.9986 O.2       1 <0>        -0.3830
     14 N2         -3.5339   -2.3071   -4.2145 N.am      1 <0>        -0.5515
     15 C12        -2.5591   -3.2332   -3.9374 C.cat     1 <0>         0.7350
     16 N3         -2.5428   -3.5882   -2.6898 N.pl3     1 <0>        -0.6264
     17 N4         -1.6930   -3.7315   -4.8812 N.pl3     1 <0>        -0.7727
     18 C13        -3.7824   -1.7291   -5.5375 C.3       1 <0>         0.0579
     19 C14        -4.6264   -3.7934   -1.4212 C.ar      1 <0>        -0.1155
     20 C15        -5.8434   -3.3122   -0.9726 C.ar      1 <0>        -0.0815
     21 C16        -6.7802   -4.1776   -0.4376 C.ar      1 <0>        -0.0978
     22 C17        -6.5053   -5.5274   -0.3487 C.ar      1 <0>        -0.0727
     23 C18        -5.2814   -6.0175   -0.7993 C.ar      1 <0>        -0.0329
     24 C19        -4.3430   -5.1416   -1.3420 C.ar      1 <0>        -0.0811
     25 C20        -4.9802   -7.4673   -0.7064 C.ar      1 <0>        -0.1333
     26 C21        -5.1757   -8.1576    0.4918 C.ar      1 <0>        -0.0306
     27 C22        -4.8802   -9.5100    0.5272 C.ar      1 <0>        -0.1724
     28 C23        -4.4053  -10.1297   -0.6136 C.ar      1 <0>         0.1476
     29 N5         -4.2299   -9.4535   -1.7329 N.ar      1 <0>        -0.5071
     30 C24        -4.5022   -8.1654   -1.8171 C.ar      1 <0>         0.3160
     31 F1         -4.3119   -7.5153   -2.9861 F         1 <0>        -0.1143
     32 H1          1.9453   -0.5336    1.4097 H         1 <0>         0.0661
     33 H2          1.0290   -0.0709   -0.0445 H         1 <0>         0.0507
     34 H3          0.4721    0.4537    1.5627 H         1 <0>         0.0700
     35 H4          0.5865   -2.4314    0.5726 H         1 <0>         0.0796
     36 H5          0.0296   -1.9068    2.1798 H         1 <0>         0.0923
     37 H6         -1.1729   -3.0262   -0.7898 H         1 <0>         0.1305
     38 H7         -4.7470   -0.6804   -0.7887 H         1 <0>         0.1494
     39 H8         -3.4616    1.9838    0.8803 H         1 <0>         0.0916
     40 H9         -4.9728    1.0604    0.7020 H         1 <0>         0.0846
     41 H10        -3.0655    0.9107    3.0804 H         1 <0>         0.0681
     42 H11        -4.6297    1.7598    3.0561 H         1 <0>         0.0666
     43 H12        -4.5767   -0.0127    2.9021 H         1 <0>         0.0533
     44 H13        -1.7517   -3.4290   -5.8010 H         1 <0>         0.4460
     45 H14        -1.0232   -4.3855   -4.6275 H         1 <0>         0.4475
     46 H15        -3.1823   -0.8272   -5.6585 H         1 <0>         0.1037
     47 H16        -3.5108   -2.4520   -6.3067 H         1 <0>         0.1028
     48 H17        -4.8388   -1.4779   -5.6318 H         1 <0>         0.1207
     49 H18        -6.0627   -2.2569   -1.0403 H         1 <0>         0.1402
     50 H19        -7.7285   -3.7965   -0.0883 H         1 <0>         0.1458
     51 H20        -7.2374   -6.2022    0.0696 H         1 <0>         0.1407
     52 H21        -3.3942   -5.5167   -1.6962 H         1 <0>         0.1202
     53 H22        -5.5476   -7.6492    1.3691 H         1 <0>         0.1515
     54 H23        -5.0190  -10.0750    1.4371 H         1 <0>         0.1550
     55 H24        -4.1739  -11.1843   -0.5882 H         1 <0>         0.1763
     56 H25        -1.9366   -4.2272   -2.2834 H         1 <0>         0.4649
@<TRIPOS>BOND
     1    1    2 1
     2    1   32 1
     3    1   33 1
     4    1   34 1
     5    2    3 1
     6    2   35 1
     7    2   36 1
     8    3    8 ar
     9    3    4 ar
    10    4    5 ar
    11    4   37 1
    12    5    6 ar
    13    5   11 1
    14    6    7 ar
    15    6   38 1
    16    7    8 ar
    17    7    9 1
    18    9   10 1
    19    9   39 1
    20    9   40 1
    21   10   41 1
    22   10   42 1
    23   10   43 1
    24   11   16 1
    25   11   12 1
    26   11   19 1
    27   12   13 2
    28   12   14 am
    29   14   15 1
    30   14   18 1
    31   15   16 2
    32   15   17 1
    33   16   56 1
    34   17   44 1
    35   17   45 1
    36   18   46 1
    37   18   47 1
    38   18   48 1
    39   19   24 ar
    40   19   20 ar
    41   20   21 ar
    42   20   49 1
    43   21   22 ar
    44   21   50 1
    45   22   23 ar
    46   22   51 1
    47   23   24 ar
    48   23   25 1
    49   24   52 1
    50   25   30 ar
    51   25   26 ar
    52   26   27 ar
    53   26   53 1
    54   27   28 ar
    55   27   54 1
    56   28   29 ar
    57   28   55 1
    58   29   30 ar
    59   30   31 1
@<TRIPOS>MOLECULE
CHEMBL598290__1
   56    59     0     0     0
SMALL
USER_CHARGES

@<TRIPOS>ATOM
      1 C1         -4.1167    0.9406    2.6309 C.3       1 <0>        -0.1462
      2 C2         -4.0220    1.0654    1.1089 C.3       1 <0>        -0.0797
      3 C3         -3.2307   -0.0928    0.5581 C.ar      1 <0>         0.1627
      4 C4         -3.7818   -0.8891   -0.4279 C.ar      1 <0>        -0.1579
      5 C5         -3.0454   -1.9522   -0.9279 C.ar      1 <0>        -0.0595
      6 C6         -1.7767   -2.1753   -0.4149 C.ar      1 <0>        -0.1639
      7 C7         -1.2917   -1.3366    0.5707 C.ar      1 <0>         0.1574
      8 N1         -2.0184   -0.3315    1.0188 N.ar      1 <0>        -0.4581
      9 C8          0.0856   -1.5700    1.1359 C.3       1 <0>        -0.0776
     10 C9          0.9153   -0.2916    1.0017 C.3       1 <0>        -0.1464
     11 C10        -3.6107   -2.8442   -2.0030 C.3       1 <0>         0.2295
     12 C11        -4.2365   -2.0146   -3.1036 C.2       1 <0>         0.5446
     13 O1         -5.1681   -1.2465   -2.9924 O.2       1 <0>        -0.3889
     14 N2         -3.5554   -2.2966   -4.2303 N.am      1 <0>        -0.5521
     15 C12        -2.5592   -3.2123   -3.9940 C.cat     1 <0>         0.7347
     16 N3         -2.5321   -3.5882   -2.6736 N.pl3     1 <0>        -0.6658
     17 N4         -1.7462   -3.6655   -4.9042 N.pl3     1 <0>        -0.7284
     18 C13        -3.8400   -1.7033   -5.5392 C.3       1 <0>         0.0555
     19 C14        -4.6219   -3.7961   -1.4178 C.ar      1 <0>        -0.1143
     20 C15        -5.8386   -3.3182   -0.9648 C.ar      1 <0>        -0.0830
     21 C16        -6.7712   -4.1861   -0.4266 C.ar      1 <0>        -0.0993
     22 C17        -6.4926   -5.5352   -0.3391 C.ar      1 <0>        -0.0741
     23 C18        -5.2690   -6.0221   -0.7942 C.ar      1 <0>        -0.0353
     24 C19        -4.3348   -5.1436   -1.3400 C.ar      1 <0>        -0.0792
     25 C20        -4.9638   -7.4711   -0.7028 C.ar      1 <0>        -0.1318
     26 C21        -5.1532   -8.1622    0.4959 C.ar      1 <0>        -0.0311
     27 C22        -4.8542   -9.5139    0.5298 C.ar      1 <0>        -0.1725
     28 C23        -4.3818  -10.1321   -0.6128 C.ar      1 <0>         0.1468
     29 N5         -4.2121   -9.4551   -1.7325 N.ar      1 <0>        -0.5075
     30 C24        -4.4880   -8.1677   -1.8154 C.ar      1 <0>         0.3156
     31 F1         -4.3035   -7.5168   -2.9848 F         1 <0>        -0.1144
     32 H1         -4.6891    1.7783    3.0292 H         1 <0>         0.0662
     33 H2         -4.6141    0.0055    2.8884 H         1 <0>         0.0532
     34 H3         -3.1144    0.9489    3.0591 H         1 <0>         0.0679
     35 H4         -5.0243    1.0570    0.6806 H         1 <0>         0.0840
     36 H5         -3.5247    2.0005    0.8513 H         1 <0>         0.0908
     37 H6         -4.7736   -0.6860   -0.8040 H         1 <0>         0.1487
     38 H7         -1.1753   -2.9944   -0.7807 H         1 <0>         0.1309
     39 H8          0.0052   -1.8422    2.1883 H         1 <0>         0.0916
     40 H9          0.5712   -2.3775    0.5878 H         1 <0>         0.0792
     41 H10         1.9116   -0.4604    1.4105 H         1 <0>         0.0656
     42 H11         0.9958   -0.0194   -0.0507 H         1 <0>         0.0504
     43 H12         0.4297    0.5159    1.5498 H         1 <0>         0.0698
     44 H13        -1.8224   -3.3556   -5.8202 H         1 <0>         0.4506
     45 H14        -3.2557   -0.7911   -5.6595 H         1 <0>         0.1045
     46 H15        -3.5743   -2.4111   -6.3244 H         1 <0>         0.1018
     47 H16        -4.9018   -1.4665   -5.6076 H         1 <0>         0.1222
     48 H17        -6.0607   -2.2634   -1.0314 H         1 <0>         0.1394
     49 H18        -7.7192   -3.8075   -0.0739 H         1 <0>         0.1445
     50 H19        -7.2215   -6.2120    0.0816 H         1 <0>         0.1395
     51 H20        -3.3863   -5.5162   -1.6977 H         1 <0>         0.1211
     52 H21        -5.5234   -7.6550    1.3746 H         1 <0>         0.1513
     53 H22        -4.9883  -10.0794    1.4401 H         1 <0>         0.1547
     54 H23        -4.1476  -11.1861   -0.5885 H         1 <0>         0.1760
     55 H24        -1.9213   -4.2200   -2.2630 H         1 <0>         0.4633
     56 H25        -1.0643   -4.3131   -4.6664 H         1 <0>         0.4531
@<TRIPOS>BOND
     1    1    2 1
     2    1   32 1
     3    1   33 1
     4    1   34 1
     5    2    3 1
     6    2   35 1
     7    2   36 1
     8    3    8 ar
     9    3    4 ar
    10    4    5 ar
    11    4   37 1
    12    5    6 ar
    13    5   11 1
    14    6    7 ar
    15    6   38 1
    16    7    8 ar
    17    7    9 1
    18    9   10 1
    19    9   39 1
    20    9   40 1
    21   10   41 1
    22   10   42 1
    23   10   43 1
    24   11   16 1
    25   11   12 1
    26   11   19 1
    27   12   13 2
    28   12   14 am
    29   14   15 1
    30   14   18 1
    31   15   16 1
    32   15   17 2
    33   16   55 1
    34   17   44 1
    35   17   56 1
    36   18   45 1
    37   18   46 1
    38   18   47 1
    39   19   24 ar
    40   19   20 ar
    41   20   21 ar
    42   20   48 1
    43   21   22 ar
    44   21   49 1
    45   22   23 ar
    46   22   50 1
    47   23   24 ar
    48   23   25 1
    49   24   51 1
    50   25   30 ar
    51   25   26 ar
    52   26   27 ar
    53   26   52 1
    54   27   28 ar
    55   27   53 1
    56   28   29 ar
    57   28   54 1
    58   29   30 ar
    59   30   31 1
@<TRIPOS>MOLECULE
CHEMBL272700
   76    80     0     0     0
SMALL
USER_CHARGES

@<TRIPOS>ATOM
      1 C1         -0.3931   -2.4313   -1.1544 C.3       1 <0>        -0.1869
      2 C2         -1.2146   -1.9717    0.0518 C.3       1 <0>        -0.0185
      3 N1         -1.2663   -0.5039    0.0784 N.4       1 <0>        -0.3822
      4 C3         -1.9392   -0.0598    1.3064 C.3       1 <0>         0.0388
      5 C4         -1.1109   -0.4514    2.5029 C.ar      1 <0>        -0.1577
      6 C5         -1.3076   -1.6786    3.1080 C.ar      1 <0>        -0.0988
      7 C6         -0.5478   -2.0378    4.2055 C.ar      1 <0>        -0.1130
      8 C7          0.4091   -1.1700    4.6976 C.ar      1 <0>        -0.0850
      9 C8          0.6065    0.0568    4.0920 C.ar      1 <0>        -0.1125
     10 C9         -0.1504    0.4142    2.9918 C.ar      1 <0>        -0.0936
     11 C10        -2.0113   -0.0188   -1.0910 C.3       1 <0>         0.0386
     12 C11        -1.9439    1.4859   -1.1408 C.ar      1 <0>        -0.1543
     13 C12        -2.9707    2.2398   -0.6011 C.ar      1 <0>        -0.0895
     14 C13        -2.9146    3.6178   -0.6437 C.ar      1 <0>        -0.0930
     15 C14        -1.8200    4.2505   -1.2323 C.ar      1 <0>         0.0086
     16 C15        -0.7881    3.4852   -1.7746 C.ar      1 <0>        -0.0936
     17 C16        -0.8527    2.1078   -1.7209 C.ar      1 <0>        -0.0919
     18 C17        -1.7540    5.7299   -1.2816 C.2       1 <0>        -0.1862
     19 C18        -0.7816    6.4255   -0.6035 C.2       1 <0>         0.0171
     20 C19        -0.7970    7.8865   -0.7124 C.ar      1 <0>        -0.1162
     21 C20         0.2951    8.6491   -0.2827 C.ar      1 <0>        -0.0899
     22 C21         0.2540   10.0242   -0.3999 C.ar      1 <0>         0.1177
     23 C22        -0.8655   10.6498   -0.9423 C.ar      1 <0>        -0.1494
     24 C23        -1.9471    9.9079   -1.3678 C.ar      1 <0>        -0.0844
     25 C24        -1.9265    8.5249   -1.2571 C.ar      1 <0>         0.0999
     26 O1         -2.9848    7.7826   -1.6650 O.3       1 <0>        -0.2719
     27 C25        -2.7240    6.5147   -2.0644 C.2       1 <0>         0.5198
     28 O2         -3.2764    6.0360   -3.0376 O.2       1 <0>        -0.4267
     29 O3          1.3112   10.7708    0.0165 O.3       1 <0>        -0.3068
     30 C26         1.2038   12.1878   -0.1333 C.3       1 <0>         0.0424
     31 C27         2.4796   12.8537    0.3861 C.3       1 <0>         0.1223
     32 N2          3.6130   12.4600   -0.4545 N.am      1 <0>        -0.7310
     33 C28         4.8474   12.9286   -0.1840 C.2       1 <0>         0.5152
     34 O4          5.0199   13.6762    0.7552 O.2       1 <0>        -0.5229
     35 C29         6.0133   12.5235   -1.0487 C.3       1 <0>        -0.1025
     36 C30         7.2699   13.1794   -0.5371 C.ar      1 <0>        -0.0139
     37 C31         7.6415   14.4235   -1.0107 C.ar      1 <0>        -0.1498
     38 C32         8.7962   15.0269   -0.5416 C.ar      1 <0>         0.1358
     39 C33         9.5782   14.3838    0.4023 C.ar      1 <0>        -0.1899
     40 C34         9.2048   13.1381    0.8762 C.ar      1 <0>         0.1346
     41 C35         8.0469   12.5388    0.4095 C.ar      1 <0>        -0.1504
     42 F1          9.9671   12.5093    1.7975 F         1 <0>        -0.1289
     43 F2          9.1596   16.2427   -1.0054 F         1 <0>        -0.1279
     44 H1         -0.2729   -3.5141   -1.1208 H         1 <0>         0.1061
     45 H2         -0.9084   -2.1511   -2.0731 H         1 <0>         0.0810
     46 H3          0.5875   -1.9560   -1.1284 H         1 <0>         0.0789
     47 H4         -2.2265   -2.3695   -0.0250 H         1 <0>         0.1301
     48 H5         -0.7497   -2.3356    0.9680 H         1 <0>         0.1325
     49 H6         -2.0569    1.0236    1.2848 H         1 <0>         0.1368
     50 H7         -2.9200   -0.5305    1.3738 H         1 <0>         0.1351
     51 H8         -2.0552   -2.3566    2.7235 H         1 <0>         0.1310
     52 H9         -0.7020   -2.9963    4.6787 H         1 <0>         0.1361
     53 H10         1.0023   -1.4504    5.5555 H         1 <0>         0.1357
     54 H11         1.3538    0.7349    4.4766 H         1 <0>         0.1356
     55 H12         0.0064    1.3712    2.5163 H         1 <0>         0.1296
     56 H13        -1.5720   -0.4324   -1.9988 H         1 <0>         0.1410
     57 H14        -3.0521   -0.3335   -1.0149 H         1 <0>         0.1374
     58 H15        -3.8180    1.7487   -0.1459 H         1 <0>         0.1367
     59 H16        -3.7170    4.2053   -0.2224 H         1 <0>         0.1365
     60 H17         0.0620    3.9695   -2.2320 H         1 <0>         0.1389
     61 H18        -0.0519    1.5141   -2.1363 H         1 <0>         0.1355
     62 H19        -0.0352    5.9149   -0.0131 H         1 <0>         0.1579
     63 H20         1.1640    8.1652    0.1382 H         1 <0>         0.1492
     64 H21        -0.8870   11.7260   -1.0302 H         1 <0>         0.1486
     65 H22        -2.8104   10.4032   -1.7869 H         1 <0>         0.1512
     66 H23         1.0692   12.4327   -1.1869 H         1 <0>         0.0766
     67 H24         0.3475   12.5495    0.4360 H         1 <0>         0.0870
     68 H25         2.3628   13.9370    0.3545 H         1 <0>         0.0956
     69 H26         2.6620   12.5378    1.4133 H         1 <0>         0.0833
     70 H27         3.4750   11.8620   -1.2056 H         1 <0>         0.4044
     71 H28         6.1301   11.4403   -1.0170 H         1 <0>         0.1123
     72 H29         5.8309   12.8394   -2.0759 H         1 <0>         0.1130
     73 H30         7.0312   14.9251   -1.7471 H         1 <0>         0.1420
     74 H31        10.4791   14.8536    0.7684 H         1 <0>         0.1507
     75 H32         7.7531   11.5688    0.7824 H         1 <0>         0.1410
     76 H33        -0.3278   -0.1338    0.0566 H         1 <0>         0.4210
@<TRIPOS>BOND
     1    1    2 1
     2    1   44 1
     3    1   45 1
     4    1   46 1
     5    2    3 1
     6    2   47 1
     7    2   48 1
     8    3    4 1
     9    3   11 1
    10    3   76 1
    11    4    5 1
    12    4   49 1
    13    4   50 1
    14    5   10 ar
    15    5    6 ar
    16    6    7 ar
    17    6   51 1
    18    7    8 ar
    19    7   52 1
    20    8    9 ar
    21    8   53 1
    22    9   10 ar
    23    9   54 1
    24   10   55 1
    25   11   12 1
    26   11   56 1
    27   11   57 1
    28   12   17 ar
    29   12   13 ar
    30   13   14 ar
    31   13   58 1
    32   14   15 ar
    33   14   59 1
    34   15   16 ar
    35   15   18 1
    36   16   17 ar
    37   16   60 1
    38   17   61 1
    39   18   27 1
    40   18   19 2
    41   19   20 1
    42   19   62 1
    43   20   25 ar
    44   20   21 ar
    45   21   22 ar
    46   21   63 1
    47   22   23 ar
    48   22   29 1
    49   23   24 ar
    50   23   64 1
    51   24   25 ar
    52   24   65 1
    53   25   26 1
    54   26   27 1
    55   27   28 2
    56   29   30 1
    57   30   31 1
    58   30   66 1
    59   30   67 1
    60   31   32 1
    61   31   68 1
    62   31   69 1
    63   32   33 am
    64   32   70 1
    65   33   34 2
    66   33   35 1
    67   35   36 1
    68   35   71 1
    69   35   72 1
    70   36   41 ar
    71   36   37 ar
    72   37   38 ar
    73   37   73 1
    74   38   39 ar
    75   38   43 1
    76   39   40 ar
    77   39   74 1
    78   40   41 ar
    79   40   42 1
    80   41   75 1
@<TRIPOS>MOLECULE
CHEMBL312058
   90    91     0     0     0
SMALL
USER_CHARGES

@<TRIPOS>ATOM
      1 C1          1.6024   -2.3050   -1.2361 C.3       1 <0>        -0.1473
      2 C2          0.8469   -1.6080   -0.1029 C.3       1 <0>        -0.1074
      3 H1          1.0720   -0.5416   -0.1182 H         1 <0>         0.1071
      4 C3          1.2798   -2.2014    1.2393 C.3       1 <0>        -0.1295
      5 C4          0.6422   -1.4040    2.3788 C.3       1 <0>         0.0944
      6 H2         -0.4411   -1.4003    2.2580 H         1 <0>         0.1323
      7 C5          1.0039   -2.0499    3.7179 C.3       1 <0>         0.1262
      8 H3          0.6325   -3.0744    3.7391 H         1 <0>         0.1006
      9 C6          0.3663   -1.2525    4.8574 C.3       1 <0>        -0.0887
     10 C7          0.6192   -1.9562    6.1658 C.ar      1 <0>        -0.0628
     11 C8         -0.2781   -2.9012    6.6270 C.ar      1 <0>        -0.1066
     12 C9         -0.0462   -3.5467    7.8272 C.ar      1 <0>        -0.1117
     13 C10         1.0833   -3.2477    8.5658 C.ar      1 <0>        -0.1208
     14 C11         1.9812   -2.3034    8.1041 C.ar      1 <0>        -0.1110
     15 C12         1.7514   -1.6609    6.9019 C.ar      1 <0>        -0.1117
     16 N1          2.4599   -2.0548    3.8802 N.am      1 <0>        -0.7227
     17 C13         3.0461   -2.9708    4.6763 C.2       1 <0>         0.5139
     18 O1          2.3682   -3.7910    5.2583 O.2       1 <0>        -0.5070
     19 C14         4.5438   -2.9758    4.8433 C.3       1 <0>         0.1253
     20 H4          4.8662   -2.0210    5.2587 H         1 <0>         0.1108
     21 C15         5.2080   -3.1902    3.4818 C.3       1 <0>        -0.1608
     22 N2          4.9302   -4.0587    5.7511 N.am      1 <0>        -0.7075
     23 C16         6.0827   -3.9772    6.4452 C.2       1 <0>         0.4928
     24 O2          6.7997   -3.0074    6.3183 O.2       1 <0>        -0.5323
     25 C17         6.4802   -5.0912    7.3791 C.3       1 <0>         0.0978
     26 H5          6.4903   -6.0355    6.8347 H         1 <0>         0.1240
     27 C18         5.4745   -5.1762    8.5289 C.3       1 <0>        -0.1220
     28 C19         5.8781   -6.3071    9.4770 C.3       1 <0>        -0.1435
     29 C20         5.4603   -3.8507    9.2931 C.3       1 <0>        -0.1549
     30 O3          7.7833   -4.8302    7.9043 O.3       1 <0>        -0.5330
     31 O4          1.1291   -0.0608    2.3509 O.3       1 <0>        -0.5519
     32 C21        -0.6349   -1.8113   -0.2875 C.2       1 <0>         0.5249
     33 O5         -1.2811   -2.3752    0.5700 O.2       1 <0>        -0.5327
     34 N3         -1.2420   -1.3663   -1.4055 N.am      1 <0>        -0.7101
     35 C22        -2.6825   -1.5640   -1.5849 C.3       1 <0>         0.1334
     36 H6         -2.9760   -2.5170   -1.1449 H         1 <0>         0.1117
     37 C23        -3.4427   -0.4286   -0.8965 C.3       1 <0>        -0.0996
     38 C24        -3.1927   -0.4886    0.6118 C.3       1 <0>        -0.1386
     39 C25        -2.9552    0.9154   -1.4412 C.3       1 <0>        -0.1489
     40 C26        -3.0095   -1.5679   -3.0560 C.2       1 <0>         0.5166
     41 O6         -2.2242   -1.1001   -3.8531 O.2       1 <0>        -0.5292
     42 N4         -4.1748   -2.0911   -3.4859 N.am      1 <0>        -0.7225
     43 C27        -4.4421   -2.2029   -4.9220 C.3       1 <0>         0.1609
     44 C28        -5.8026   -2.8156   -5.1335 C.ar      1 <0>        -0.0676
     45 C29        -5.9541   -4.1901   -5.2341 C.ar      1 <0>        -0.1547
     46 C30        -7.2173   -4.7160   -5.4281 C.ar      1 <0>         0.1007
     47 N5         -8.2700   -3.9268   -5.5178 N.ar      1 <0>        -0.4782
     48 C31        -8.1635   -2.6156   -5.4267 C.ar      1 <0>         0.1007
     49 C32        -6.9332   -2.0185   -5.2265 C.ar      1 <0>        -0.1542
     50 H7          1.4398   -3.3810   -1.1732 H         1 <0>         0.0613
     51 H8          1.2378   -1.9380   -2.1955 H         1 <0>         0.0629
     52 H9          2.6678   -2.0927   -1.1470 H         1 <0>         0.0697
     53 H10         0.9568   -3.2408    1.2981 H         1 <0>         0.0841
     54 H11         2.3653   -2.1528    1.3248 H         1 <0>         0.0737
     55 H12         0.8032   -0.2544    4.8913 H         1 <0>         0.0795
     56 H13        -0.7077   -1.1734    4.6890 H         1 <0>         0.0820
     57 H14        -1.1606   -3.1348    6.0499 H         1 <0>         0.1141
     58 H15        -0.7476   -4.2844    8.1879 H         1 <0>         0.1153
     59 H16         1.2642   -3.7515    9.5038 H         1 <0>         0.1138
     60 H17         2.8635   -2.0695    8.6814 H         1 <0>         0.1109
     61 H18         2.4547   -0.9259    6.5394 H         1 <0>         0.1063
     62 H19         3.0020   -1.3988    3.4148 H         1 <0>         0.3943
     63 H20         4.8855   -4.1449    3.0665 H         1 <0>         0.0650
     64 H21         4.9205   -2.3844    2.8064 H         1 <0>         0.0697
     65 H22         6.2913   -3.1938    3.6026 H         1 <0>         0.0752
     66 H23         4.3567   -4.8344    5.8527 H         1 <0>         0.4106
     67 H24         4.4805   -5.3752    8.1283 H         1 <0>         0.0859
     68 H25         6.8721   -6.1081    9.8777 H         1 <0>         0.0645
     69 H26         5.1616   -6.3677   10.2962 H         1 <0>         0.0592
     70 H27         5.8882   -7.2514    8.9326 H         1 <0>         0.0576
     71 H28         6.4543   -3.6517    9.6937 H         1 <0>         0.0593
     72 H29         5.1728   -3.0450    8.6176 H         1 <0>         0.0554
     73 H30         4.7438   -3.9112   10.1122 H         1 <0>         0.0658
     74 H31         7.8485   -4.0037    8.4020 H         1 <0>         0.3821
     75 H32         2.0880    0.0122    2.4532 H         1 <0>         0.3658
     76 H33        -0.7252   -0.9153   -2.0913 H         1 <0>         0.4106
     77 H34        -4.5097   -0.5346   -1.0924 H         1 <0>         0.0803
     78 H35        -2.1468   -0.2595    0.8161 H         1 <0>         0.0579
     79 H36        -3.8291    0.2395    1.1148 H         1 <0>         0.0527
     80 H37        -3.4241   -1.4885    0.9790 H         1 <0>         0.0667
     81 H38        -3.1333    0.9581   -2.5157 H         1 <0>         0.0550
     82 H39        -3.4968    1.7242   -0.9507 H         1 <0>         0.0601
     83 H40        -1.8882    1.0214   -1.2452 H         1 <0>         0.0598
     84 H41        -4.8365   -2.3937   -2.8444 H         1 <0>         0.4051
     85 H42        -4.4156   -1.2117   -5.3747 H         1 <0>         0.0847
     86 H43        -3.6834   -2.8341   -5.3847 H         1 <0>         0.0832
     87 H44        -5.0957   -4.8416   -5.1622 H         1 <0>         0.1377
     88 H45        -7.3438   -5.7856   -5.5075 H         1 <0>         0.1596
     89 H46        -9.0484   -2.0014   -5.5054 H         1 <0>         0.1596
     90 H47        -6.8530   -0.9444   -5.1478 H         1 <0>         0.1380
@<TRIPOS>BOND
     1    1    2 1
     2    1   50 1
     3    1   51 1
     4    1   52 1
     5    2    3 1
     6    2    4 1
     7    2   32 1
     8    4    5 1
     9    4   53 1
    10    4   54 1
    11    5    6 1
    12    5    7 1
    13    5   31 1
    14    7    8 1
    15    7    9 1
    16    7   16 1
    17    9   10 1
    18    9   55 1
    19    9   56 1
    20   10   15 ar
    21   10   11 ar
    22   11   12 ar
    23   11   57 1
    24   12   13 ar
    25   12   58 1
    26   13   14 ar
    27   13   59 1
    28   14   15 ar
    29   14   60 1
    30   15   61 1
    31   16   17 am
    32   16   62 1
    33   17   18 2
    34   17   19 1
    35   19   20 1
    36   19   21 1
    37   19   22 1
    38   21   63 1
    39   21   64 1
    40   21   65 1
    41   22   23 am
    42   22   66 1
    43   23   24 2
    44   23   25 1
    45   25   26 1
    46   25   27 1
    47   25   30 1
    48   27   28 1
    49   27   29 1
    50   27   67 1
    51   28   68 1
    52   28   69 1
    53   28   70 1
    54   29   71 1
    55   29   72 1
    56   29   73 1
    57   30   74 1
    58   31   75 1
    59   32   33 2
    60   32   34 am
    61   34   35 1
    62   34   76 1
    63   35   36 1
    64   35   37 1
    65   35   40 1
    66   37   38 1
    67   37   39 1
    68   37   77 1
    69   38   78 1
    70   38   79 1
    71   38   80 1
    72   39   81 1
    73   39   82 1
    74   39   83 1
    75   40   41 2
    76   40   42 am
    77   42   43 1
    78   42   84 1
    79   43   44 1
    80   43   85 1
    81   43   86 1
    82   44   49 ar
    83   44   45 ar
    84   45   46 ar
    85   45   87 1
    86   46   47 ar
    87   46   88 1
    88   47   48 ar
    89   48   49 ar
    90   48   89 1
    91   49   90 1
@<TRIPOS>MOLECULE
CHEMBL190346
   35    36     0     0     0
SMALL
USER_CHARGES

@<TRIPOS>ATOM
      1 C1         -0.0082    1.5265    0.0058 C.3       1 <0>        -0.1386
      2 C2          0.0071   -0.0035    0.0003 C.3       1 <0>        -0.1149
      3 S1          0.8923   -0.6045    1.4652 S.3       1 <0>         0.0217
      4 C3          0.8235   -2.3587    1.3148 C.2       1 <0>         0.2607
      5 N1          1.3721   -3.1405    2.2243 N.2       1 <0>        -0.5438
      6 C4          1.2809   -4.4475    2.0458 C.2       1 <0>         0.2777
      7 S2          0.4262   -4.5625    0.6037 S.3       1 <0>         0.3986
      8 N2          0.2186   -2.9281    0.2948 N.2       1 <0>        -0.5202
      9 N3          1.7691   -5.4683    2.8482 N.am      1 <0>        -0.6118
     10 C5          1.5742   -6.7545    2.4955 C.2       1 <0>         0.7065
     11 O1          0.9705   -7.0199    1.4741 O.2       1 <0>        -0.5279
     12 N4          2.0485   -7.7463    3.2751 N.am      1 <0>        -0.6664
     13 C6          1.7638   -9.0803    2.9611 C.ar      1 <0>         0.1396
     14 C7          1.5599  -10.0054    3.9787 C.ar      1 <0>        -0.1068
     15 C8          1.2783  -11.3245    3.6754 C.ar      1 <0>        -0.1115
     16 C9          1.1973  -11.7333    2.3604 C.ar      1 <0>        -0.0813
     17 C10         1.4001  -10.8114    1.3285 C.ar      1 <0>        -0.1527
     18 C11         1.6795   -9.4769    1.6365 C.ar      1 <0>        -0.0613
     19 C12         1.3145  -11.2434   -0.0759 C.2       1 <0>         0.3916
     20 O2          1.4907  -10.4420   -0.9685 O.2       1 <0>        -0.4474
     21 C13         1.0078  -12.6819   -0.4044 C.3       1 <0>        -0.2001
     22 H1          1.0156    1.9001   -0.0096 H         1 <0>         0.0679
     23 H2         -0.5401    1.8876   -0.8744 H         1 <0>         0.0813
     24 H3         -0.5111    1.8816    0.9053 H         1 <0>         0.0678
     25 H4         -1.0167   -0.3771    0.0158 H         1 <0>         0.0940
     26 H5          0.5100   -0.3586   -0.8992 H         1 <0>         0.0942
     27 H6          2.2508   -5.2566    3.6631 H         1 <0>         0.4265
     28 H7          2.5872   -7.5357    4.0537 H         1 <0>         0.4168
     29 H8          1.6222   -9.6923    5.0104 H         1 <0>         0.1339
     30 H9          1.1215  -12.0378    4.4711 H         1 <0>         0.1378
     31 H10         0.9778  -12.7649    2.1278 H         1 <0>         0.1372
     32 H11         1.8335   -8.7587    0.8448 H         1 <0>         0.1541
     33 H12         0.0378  -12.9512    0.0136 H         1 <0>         0.0951
     34 H13         0.9857  -12.8107   -1.4865 H         1 <0>         0.0868
     35 H14         1.7783  -13.3242    0.0223 H         1 <0>         0.0949
@<TRIPOS>BOND
     1    1    2 1
     2    1   22 1
     3    1   23 1
     4    1   24 1
     5    2    3 1
     6    2   25 1
     7    2   26 1
     8    3    4 1
     9    4    8 2
    10    4    5 1
    11    5    6 2
    12    6    7 1
    13    6    9 1
    14    7    8 1
    15    9   10 am
    16    9   27 1
    17   10   11 2
    18   10   12 am
    19   12   13 1
    20   12   28 1
    21   13   18 ar
    22   13   14 ar
    23   14   15 ar
    24   14   29 1
    25   15   16 ar
    26   15   30 1
    27   16   17 ar
    28   16   31 1
    29   17   18 ar
    30   17   19 1
    31   18   32 1
    32   19   20 2
    33   19   21 1
    34   21   33 1
    35   21   34 1
    36   21   35 1
@<TRIPOS>MOLECULE
CHEMBL1096683
   71    74     0     0     0
SMALL
USER_CHARGES

@<TRIPOS>ATOM
      1 C1         -0.1730    1.4441    0.0472 C.3       1 <0>        -0.1619
      2 C2         -0.0950   -0.0837    0.0218 C.3       1 <0>         0.1854
      3 H1         -1.1028   -0.4990    0.0205 H         1 <0>         0.1055
      4 C3          0.6469   -0.5692    1.2404 C.ar      1 <0>        -0.1053
      5 C4          2.0284   -0.5280    1.2699 C.ar      1 <0>        -0.0892
      6 C5          2.7098   -0.9725    2.3871 C.ar      1 <0>        -0.1508
      7 C6          2.0082   -1.4592    3.4770 C.ar      1 <0>         0.1034
      8 C7          0.6246   -1.5000    3.4463 C.ar      1 <0>        -0.1450
      9 C8         -0.0548   -1.0500    2.3302 C.ar      1 <0>        -0.0727
     10 F1          2.6733   -1.8944    4.5695 F         1 <0>        -0.1360
     11 N1          0.6130   -0.5165   -1.1855 N.am      1 <0>        -0.7201
     12 C9         -0.0583   -0.6604   -2.3453 C.2       1 <0>         0.5619
     13 O1         -1.2511   -0.4310   -2.3896 O.2       1 <0>        -0.5139
     14 C10         0.6564   -1.0973   -3.5640 C.ar      1 <0>        -0.1113
     15 C11         2.0229   -1.3660   -3.5128 C.ar      1 <0>        -0.0544
     16 C12         2.6926   -1.7773   -4.6633 C.ar      1 <0>        -0.0262
     17 C13         1.9935   -1.9190   -5.8629 C.ar      1 <0>        -0.0579
     18 C14         0.6334   -1.6504   -5.9107 C.ar      1 <0>         0.1599
     19 C15        -0.0379   -1.2465   -4.7653 C.ar      1 <0>        -0.0257
     20 N2         -0.0634   -1.7924   -7.1136 N.pl3     1 <0>        -0.9548
     21 C16        -1.2040   -2.7082   -7.1957 C.3       1 <0>         0.0826
     22 S1          0.4001   -0.9256   -8.4464 S.o2      1 <0>         2.5960
     23 O2         -0.8047   -0.6881   -9.1614 O.2       1 <0>        -0.9329
     24 O3          1.1604    0.1572   -7.9282 O.2       1 <0>        -0.9385
     25 C17         1.4719   -2.0495   -9.3838 C.3       1 <0>        -0.6721
     26 C18         4.1424   -2.0629   -4.6135 C.2       1 <0>         0.2958
     27 N3          4.8823   -2.4498   -5.6257 N.2       1 <0>        -0.4638
     28 C19         6.1441   -2.6092   -5.1985 C.2       1 <0>         0.0076
     29 C20         6.1760   -2.3109   -3.8870 C.2       1 <0>        -0.1099
     30 O4          4.9249   -1.9642   -3.5249 O.3       1 <0>        -0.1708
     31 C21         7.3869   -2.3509   -2.9907 C.3       1 <0>         0.1733
     32 C22         8.0791   -0.9865   -3.0076 C.3       1 <0>        -0.1787
     33 C23         6.9531   -2.6851   -1.5621 C.3       1 <0>        -0.0924
     34 C24         8.1640   -2.7250   -0.6658 C.ar      1 <0>        -0.1304
     35 C25         8.8563   -3.9088   -0.4917 C.ar      1 <0>        -0.1422
     36 C26         9.9670   -3.9454    0.3304 C.ar      1 <0>        -0.1057
     37 C27        10.3858   -2.7982    0.9780 C.ar      1 <0>        -0.0999
     38 C28         9.6941   -1.6142    0.8031 C.ar      1 <0>        -0.1044
     39 C29         8.5859   -1.5766   -0.0224 C.ar      1 <0>        -0.1018
     40 N4          8.3190   -3.3789   -3.4726 N.4       1 <0>        -0.6307
     41 H2          0.8348    1.8594    0.0485 H         1 <0>         0.0603
     42 H3         -0.7095    1.7952   -0.8342 H         1 <0>         0.0703
     43 H4         -0.6997    1.7661    0.9455 H         1 <0>         0.0741
     44 H5          2.5754   -0.1487    0.4195 H         1 <0>         0.1270
     45 H6          3.7890   -0.9406    2.4098 H         1 <0>         0.1353
     46 H7          0.0763   -1.8797    4.2958 H         1 <0>         0.1419
     47 H8         -1.1343   -1.0776    2.3077 H         1 <0>         0.1397
     48 H9          1.5649   -0.6996   -1.1502 H         1 <0>         0.3964
     49 H10         2.5618   -1.2552   -2.5834 H         1 <0>         0.1390
     50 H11         2.5120   -2.2379   -6.7550 H         1 <0>         0.1459
     51 H12        -1.0978   -1.0428   -4.8046 H         1 <0>         0.1580
     52 H13        -2.1186   -2.1732   -6.9401 H         1 <0>         0.0755
     53 H14        -1.2834   -3.0996   -8.2099 H         1 <0>         0.0844
     54 H15        -1.0586   -3.5331   -6.4982 H         1 <0>         0.0824
     55 H16         0.9102   -2.9422   -9.6588 H         1 <0>         0.1338
     56 H17         1.8227   -1.5487  -10.2861 H         1 <0>         0.1373
     57 H18         2.3267   -2.3329   -8.7698 H         1 <0>         0.1282
     58 H19         6.9847   -2.9213   -5.8005 H         1 <0>         0.1916
     59 H20         7.3874   -0.2237   -2.6500 H         1 <0>         0.1123
     60 H21         8.9549   -1.0154   -2.3594 H         1 <0>         0.0999
     61 H22         8.3880   -0.7484   -4.0254 H         1 <0>         0.0908
     62 H23         6.2615   -1.9223   -1.2045 H         1 <0>         0.1252
     63 H24         6.4600   -3.6571   -1.5500 H         1 <0>         0.1037
     64 H25         8.5291   -4.8051   -0.9976 H         1 <0>         0.1233
     65 H26        10.5074   -4.8705    0.4671 H         1 <0>         0.1333
     66 H27        11.2531   -2.8270    1.6208 H         1 <0>         0.1336
     67 H28        10.0210   -0.7179    1.3092 H         1 <0>         0.1341
     68 H29         8.0477   -0.6507   -0.1620 H         1 <0>         0.1311
     69 H30         8.6051   -3.1585   -4.4148 H         1 <0>         0.4367
     70 H31         9.1298   -3.4056   -2.8726 H         1 <0>         0.4445
     71 H32         7.8625   -4.2786   -3.4615 H         1 <0>         0.4381
@<TRIPOS>BOND
     1    1    2 1
     2    1   41 1
     3    1   42 1
     4    1   43 1
     5    2    3 1
     6    2    4 1
     7    2   11 1
     8    4    9 ar
     9    4    5 ar
    10    5    6 ar
    11    5   44 1
    12    6    7 ar
    13    6   45 1
    14    7    8 ar
    15    7   10 1
    16    8    9 ar
    17    8   46 1
    18    9   47 1
    19   11   12 am
    20   11   48 1
    21   12   13 2
    22   12   14 1
    23   14   19 ar
    24   14   15 ar
    25   15   16 ar
    26   15   49 1
    27   16   17 ar
    28   16   26 1
    29   17   18 ar
    30   17   50 1
    31   18   19 ar
    32   18   20 1
    33   19   51 1
    34   20   21 1
    35   20   22 1
    36   21   52 1
    37   21   53 1
    38   21   54 1
    39   22   23 2
    40   22   24 2
    41   22   25 1
    42   25   55 1
    43   25   56 1
    44   25   57 1
    45   26   30 1
    46   26   27 2
    47   27   28 1
    48   28   29 2
    49   28   58 1
    50   29   30 1
    51   29   31 1
    52   31   32 1
    53   31   33 1
    54   31   40 1
    55   32   59 1
    56   32   60 1
    57   32   61 1
    58   33   34 1
    59   33   62 1
    60   33   63 1
    61   34   39 ar
    62   34   35 ar
    63   35   36 ar
    64   35   64 1
    65   36   37 ar
    66   36   65 1
    67   37   38 ar
    68   37   66 1
    69   38   39 ar
    70   38   67 1
    71   39   68 1
    72   40   69 1
    73   40   70 1
    74   40   71 1
@<TRIPOS>MOLECULE
CHEMBL429666
   79    82     0     0     0
SMALL
USER_CHARGES

@<TRIPOS>ATOM
      1 C1         -0.0187    1.5258    0.0104 C.3       1 <0>        -0.1544
      2 C2          0.0021   -0.0041    0.0020 C.3       1 <0>        -0.1448
      3 C3          0.7182   -0.4975   -1.2568 C.3       1 <0>         0.0944
      4 N1          0.7381   -1.9623   -1.2648 N.pl3     1 <0>        -0.9385
      5 C4         -0.3555   -2.6742   -1.7704 C.ar      1 <0>         0.1908
      6 C5         -0.5976   -3.9740   -1.3396 C.ar      1 <0>        -0.1337
      7 C6         -1.6760   -4.6847   -1.8393 C.ar      1 <0>        -0.0651
      8 C7         -2.5095   -4.1040   -2.7766 C.ar      1 <0>        -0.1075
      9 C8         -2.2738   -2.7996   -3.2123 C.ar      1 <0>        -0.1009
     10 C9         -1.1924   -2.0796   -2.7030 C.ar      1 <0>        -0.0854
     11 C10        -3.1630   -2.1877   -4.2284 C.2       1 <0>         0.5652
     12 O1         -3.1849   -0.9845   -4.3883 O.2       1 <0>        -0.4925
     13 N2         -3.9238   -3.0400   -4.9847 N.am      1 <0>        -0.7355
     14 C11        -4.7921   -2.4082   -6.0088 C.3       1 <0>         0.1905
     15 H1         -5.3682   -1.5991   -5.5650 H         1 <0>         0.1034
     16 C12        -5.7303   -3.4906   -6.5562 C.3       1 <0>        -0.1178
     17 C13        -6.9032   -3.7013   -5.6027 C.3       1 <0>        -0.0941
     18 C14        -7.0285   -5.1641   -5.2643 C.ar      1 <0>        -0.0647
     19 C15        -7.8209   -5.9840   -6.0453 C.ar      1 <0>        -0.0984
     20 C16        -7.9317   -7.3286   -5.7450 C.ar      1 <0>        -0.1051
     21 C17        -7.2537   -7.8575   -4.6607 C.ar      1 <0>        -0.1199
     22 C18        -6.4614   -7.0387   -3.8759 C.ar      1 <0>        -0.1362
     23 C19        -6.3555   -5.6909   -4.1773 C.ar      1 <0>        -0.1283
     24 C20        -5.7223   -7.6087   -2.6959 C.3       1 <0>        -0.0931
     25 C21        -4.3846   -8.2055   -3.1280 C.3       1 <0>         0.0672
     26 C22        -3.3320   -7.9369   -2.0414 C.3       1 <0>         0.0414
     27 O2         -3.2183   -6.5271   -1.8357 O.3       1 <0>        -0.3897
     28 C23        -1.9454   -6.0883   -1.3614 C.3       1 <0>         0.1032
     29 C24        -4.5336   -9.7203   -3.3124 C.3       1 <0>        -0.1794
     30 N3         -3.9350   -7.6101   -4.3892 N.4       1 <0>        -0.6320
     31 C25        -3.9448   -1.8722   -7.1369 C.ar      1 <0>        -0.1116
     32 C26        -2.8645   -2.6023   -7.5964 C.ar      1 <0>        -0.0782
     33 C27        -2.0882   -2.1127   -8.6296 C.ar      1 <0>        -0.1553
     34 C28        -2.3928   -0.8906   -9.2046 C.ar      1 <0>         0.1065
     35 C29        -3.4750   -0.1603   -8.7436 C.ar      1 <0>        -0.1484
     36 C30        -4.2530   -0.6543   -7.7138 C.ar      1 <0>        -0.0681
     37 F1         -1.6343   -0.4108  -10.2144 F         1 <0>        -0.1355
     38 S1          2.0547   -2.7758   -0.6757 S.o2      1 <0>         2.5947
     39 O3          2.0998   -3.9830   -1.4240 O.2       1 <0>        -0.9417
     40 O4          3.1211   -1.8393   -0.7465 O.2       1 <0>        -0.9326
     41 C31         1.6476   -3.1292    1.0564 C.3       1 <0>        -0.6738
     42 H2          1.0039    1.9031    0.0027 H         1 <0>         0.0625
     43 H3         -0.5459    1.8868   -0.8726 H         1 <0>         0.0613
     44 H4         -0.5289    1.8773    0.9072 H         1 <0>         0.0638
     45 H5          0.5293   -0.3651    0.8851 H         1 <0>         0.0636
     46 H6         -1.0205   -0.3814    0.0098 H         1 <0>         0.0718
     47 H7          0.1910   -0.1364   -2.1398 H         1 <0>         0.0965
     48 H8          1.7408   -0.1202   -1.2645 H         1 <0>         0.1116
     49 H9          0.0601   -4.4254   -0.6145 H         1 <0>         0.1306
     50 H10        -3.3448   -4.6666   -3.1648 H         1 <0>         0.1223
     51 H11        -1.0106   -1.0700   -3.0296 H         1 <0>         0.1475
     52 H12        -3.8996   -4.0036   -4.8665 H         1 <0>         0.3961
     53 H13        -6.1066   -3.1797   -7.5320 H         1 <0>         0.0922
     54 H14        -5.1731   -4.4201   -6.6630 H         1 <0>         0.0697
     55 H15        -6.7453   -3.1334   -4.6901 H         1 <0>         0.0845
     56 H16        -7.8256   -3.3645   -6.0794 H         1 <0>         0.0862
     57 H17        -8.3624   -5.5768   -6.8867 H         1 <0>         0.1327
     58 H18        -8.5516   -7.9679   -6.3550 H         1 <0>         0.1327
     59 H19        -7.3515   -8.9074   -4.4276 H         1 <0>         0.1305
     60 H20        -5.7473   -5.0525   -3.5558 H         1 <0>         0.1292
     61 H21        -5.5460   -6.8083   -1.9719 H         1 <0>         0.1148
     62 H22        -6.3328   -8.3840   -2.2292 H         1 <0>         0.1154
     63 H23        -3.6432   -8.4218   -1.1165 H         1 <0>         0.1093
     64 H24        -2.3731   -8.3413   -2.3611 H         1 <0>         0.0852
     65 H25        -1.1661   -6.7571   -1.7289 H         1 <0>         0.0836
     66 H26        -1.9438   -6.1034   -0.2678 H         1 <0>         0.0881
     67 H27        -5.2839   -9.9211   -4.0772 H         1 <0>         0.0915
     68 H28        -3.5780  -10.1444   -3.6207 H         1 <0>         0.0864
     69 H29        -4.8447  -10.1721   -2.3706 H         1 <0>         0.1116
     70 H30        -3.8245   -6.6142   -4.2704 H         1 <0>         0.4306
     71 H31        -3.0513   -8.0169   -4.6570 H         1 <0>         0.4323
     72 H32        -2.6270   -3.5554   -7.1475 H         1 <0>         0.1220
     73 H33        -1.2441   -2.6831   -8.9881 H         1 <0>         0.1350
     74 H34        -3.7133    0.7933   -9.1911 H         1 <0>         0.1396
     75 H35        -5.0999   -0.0869   -7.3570 H         1 <0>         0.1348
     76 H36         0.8292   -3.8479    1.0979 H         1 <0>         0.1294
     77 H37         2.5218   -3.5447    1.5576 H         1 <0>         0.1394
     78 H38         1.3472   -2.2073    1.5544 H         1 <0>         0.1361
     79 H39        -4.6195   -7.7891   -5.1086 H         1 <0>         0.4343
@<TRIPOS>BOND
     1    1    2 1
     2    1   42 1
     3    1   43 1
     4    1   44 1
     5    2    3 1
     6    2   45 1
     7    2   46 1
     8    3    4 1
     9    3   47 1
    10    3   48 1
    11    4    5 1
    12    4   38 1
    13    5   10 ar
    14    5    6 ar
    15    6    7 ar
    16    6   49 1
    17    7   28 1
    18    7    8 ar
    19    8    9 ar
    20    8   50 1
    21    9   10 ar
    22    9   11 1
    23   10   51 1
    24   11   12 2
    25   11   13 am
    26   13   14 1
    27   13   52 1
    28   14   15 1
    29   14   16 1
    30   14   31 1
    31   16   17 1
    32   16   53 1
    33   16   54 1
    34   17   18 1
    35   17   55 1
    36   17   56 1
    37   18   23 ar
    38   18   19 ar
    39   19   20 ar
    40   19   57 1
    41   20   21 ar
    42   20   58 1
    43   21   22 ar
    44   21   59 1
    45   22   23 ar
    46   22   24 1
    47   23   60 1
    48   24   25 1
    49   24   61 1
    50   24   62 1
    51   25   26 1
    52   25   29 1
    53   25   30 1
    54   26   27 1
    55   26   63 1
    56   26   64 1
    57   27   28 1
    58   28   65 1
    59   28   66 1
    60   29   67 1
    61   29   68 1
    62   29   69 1
    63   30   70 1
    64   30   71 1
    65   30   79 1
    66   31   36 ar
    67   31   32 ar
    68   32   33 ar
    69   32   72 1
    70   33   34 ar
    71   33   73 1
    72   34   35 ar
    73   34   37 1
    74   35   36 ar
    75   35   74 1
    76   36   75 1
    77   38   39 2
    78   38   40 2
    79   38   41 1
    80   41   76 1
    81   41   77 1
    82   41   78 1
@<TRIPOS>MOLECULE
CHEMBL370043
   68    70     0     0     0
SMALL
USER_CHARGES

@<TRIPOS>ATOM
      1 C1         -0.5731    2.0556   -0.5209 C.3       1 <0>         0.1313
      2 N1         -0.4361    0.6043   -0.3754 N.pl3     1 <0>        -0.6735
      3 C2         -0.3916    0.0030    0.9598 C.3       1 <0>         0.1234
      4 C3         -0.3482   -0.2026   -1.5047 C.ar      1 <0>         0.2271
      5 C4          0.8926   -0.4975   -2.0557 C.ar      1 <0>        -0.1156
      6 C5          0.9806   -1.2975   -3.1756 C.ar      1 <0>        -0.0806
      7 C6         -0.1700   -1.8152   -3.7621 C.ar      1 <0>         0.1434
      8 C7         -1.4130   -1.5307   -3.2260 C.ar      1 <0>        -0.1042
      9 C8         -1.5119   -0.7262   -2.0878 C.ar      1 <0>        -0.1348
     10 C9         -2.8327   -0.4237   -1.5065 C.2       1 <0>         0.5597
     11 O1         -2.9154    0.2812   -0.5191 O.2       1 <0>        -0.5099
     12 N2         -3.9483   -0.9285   -2.0695 N.am      1 <0>        -0.7319
     13 C10        -5.2607   -0.6280   -1.4920 C.3       1 <0>         0.1235
     14 C11        -6.3503   -1.3181   -2.3151 C.3       1 <0>        -0.1280
     15 C12        -7.7209   -1.0043   -1.7119 C.3       1 <0>         0.0580
     16 N3         -8.7670   -1.6669   -2.5021 N.3       1 <0>        -0.5372
     17 C13        -8.8479   -1.0948   -3.8540 C.3       1 <0>         0.0134
     18 C14        -9.9064   -1.8521   -4.6602 C.3       1 <0>         0.0627
     19 O2        -11.1578   -1.7908   -3.9706 O.3       1 <0>        -0.3850
     20 C15       -11.1153   -2.3400   -2.6508 C.3       1 <0>         0.0629
     21 C16       -10.0691   -1.5877   -1.8242 C.3       1 <0>         0.0167
     22 N4         -0.0693   -2.6275   -4.9005 N.am      1 <0>        -0.6767
     23 C17         0.8757   -2.3744   -5.8275 C.2       1 <0>         0.7063
     24 O3          1.6939   -1.4953   -5.6373 O.2       1 <0>        -0.5492
     25 N5          0.9138   -3.0957   -6.9654 N.am      1 <0>        -0.6790
     26 C18         1.9571   -2.9072   -7.8787 C.ar      1 <0>         0.1689
     27 C19         1.7219   -3.0398   -9.2409 C.ar      1 <0>        -0.0687
     28 C20         2.7537   -2.8531  -10.1397 C.ar      1 <0>        -0.1616
     29 C21         4.0201   -2.5351   -9.6845 C.ar      1 <0>        -0.0358
     30 C22         4.2576   -2.4023   -8.3287 C.ar      1 <0>        -0.1613
     31 C23         3.2286   -2.5816   -7.4251 C.ar      1 <0>        -0.0413
     32 C24         5.6394   -2.0561   -7.8370 C.3       1 <0>         0.5134
     33 F1          5.7717   -0.6656   -7.7587 F         1 <0>        -0.1687
     34 F2          5.8372   -2.6154   -6.5700 F         1 <0>        -0.1714
     35 F3          6.5920   -2.5658   -8.7257 F         1 <0>        -0.1718
     36 C25         2.4993   -2.9968  -11.6181 C.3       1 <0>         0.5140
     37 F4          1.1548   -3.3194  -11.8308 F         1 <0>        -0.1733
     38 F5          2.7970   -1.7909  -12.2619 F         1 <0>        -0.1698
     39 F6          3.3101   -4.0134  -12.1342 F         1 <0>        -0.1700
     40 H1          0.4159    2.5131   -0.5471 H         1 <0>         0.0310
     41 H2         -1.1017    2.2795   -1.4475 H         1 <0>         0.0470
     42 H3         -1.1354    2.4540    0.3236 H         1 <0>         0.0586
     43 H4         -1.4035   -0.2437    1.2811 H         1 <0>         0.0410
     44 H5          0.2115   -0.9045    0.9297 H         1 <0>         0.0482
     45 H6          0.0504    0.7098    1.6621 H         1 <0>         0.0561
     46 H7          1.7902   -0.0990   -1.6063 H         1 <0>         0.1358
     47 H8          1.9479   -1.5231   -3.5998 H         1 <0>         0.1459
     48 H9         -2.3047   -1.9331   -3.6835 H         1 <0>         0.1280
     49 H10        -3.8823   -1.4908   -2.8572 H         1 <0>         0.3966
     50 H11        -5.2971   -0.9904   -0.4646 H         1 <0>         0.0698
     51 H12        -5.4245    0.4495   -1.5032 H         1 <0>         0.0672
     52 H13        -6.3139   -0.9558   -3.3424 H         1 <0>         0.0694
     53 H14        -6.1865   -2.3957   -2.3038 H         1 <0>         0.0794
     54 H15        -7.7573   -1.3666   -0.6845 H         1 <0>         0.0813
     55 H16        -7.8847    0.0733   -1.7231 H         1 <0>         0.0402
     56 H17        -9.1246   -0.0426   -3.7880 H         1 <0>         0.0443
     57 H18        -7.8801   -1.1872   -4.3468 H         1 <0>         0.0879
     58 H19       -10.0103   -1.3950   -5.6443 H         1 <0>         0.0986
     59 H20        -9.6030   -2.8931   -4.7719 H         1 <0>         0.0601
     60 H21       -12.0936   -2.2358   -2.1815 H         1 <0>         0.0998
     61 H22       -10.8471   -3.3952   -2.7041 H         1 <0>         0.0607
     62 H23        -9.9927   -2.0398   -0.8353 H         1 <0>         0.0882
     63 H24       -10.3653   -0.5433   -1.7257 H         1 <0>         0.0448
     64 H25        -0.6798   -3.3717   -5.0208 H         1 <0>         0.4115
     65 H26         0.2180   -3.7455   -7.1512 H         1 <0>         0.4162
     66 H27         0.7332   -3.2889   -9.5970 H         1 <0>         0.1542
     67 H28         4.8255   -2.3903  -10.3893 H         1 <0>         0.1518
     68 H29         3.4137   -2.4735   -6.3666 H         1 <0>         0.1609
@<TRIPOS>BOND
     1    1    2 1
     2    1   40 1
     3    1   41 1
     4    1   42 1
     5    2    3 1
     6    2    4 1
     7    3   43 1
     8    3   44 1
     9    3   45 1
    10    4    9 ar
    11    4    5 ar
    12    5    6 ar
    13    5   46 1
    14    6    7 ar
    15    6   47 1
    16    7    8 ar
    17    7   22 1
    18    8    9 ar
    19    8   48 1
    20    9   10 1
    21   10   11 2
    22   10   12 am
    23   12   13 1
    24   12   49 1
    25   13   14 1
    26   13   50 1
    27   13   51 1
    28   14   15 1
    29   14   52 1
    30   14   53 1
    31   15   16 1
    32   15   54 1
    33   15   55 1
    34   16   21 1
    35   16   17 1
    36   17   18 1
    37   17   56 1
    38   17   57 1
    39   18   19 1
    40   18   58 1
    41   18   59 1
    42   19   20 1
    43   20   21 1
    44   20   60 1
    45   20   61 1
    46   21   62 1
    47   21   63 1
    48   22   23 am
    49   22   64 1
    50   23   24 2
    51   23   25 am
    52   25   26 1
    53   25   65 1
    54   26   31 ar
    55   26   27 ar
    56   27   28 ar
    57   27   66 1
    58   28   29 ar
    59   28   36 1
    60   29   30 ar
    61   29   67 1
    62   30   31 ar
    63   30   32 1
    64   31   68 1
    65   32   33 1
    66   32   34 1
    67   32   35 1
    68   36   37 1
    69   36   38 1
    70   36   39 1
@<TRIPOS>MOLECULE
CHEMBL370043__1
   69    71     0     0     0
SMALL
USER_CHARGES

@<TRIPOS>ATOM
      1 C1         -0.5601    2.0498    0.5606 C.3       1 <0>         0.1272
      2 N1         -0.3869    0.6005    0.4352 N.pl3     1 <0>        -0.6752
      3 C2          0.9595    0.0244    0.3956 C.3       1 <0>         0.1227
      4 C3         -1.5007   -0.2285    0.3538 C.ar      1 <0>         0.2315
      5 C4         -2.0457   -0.5438   -0.8846 C.ar      1 <0>        -0.1132
      6 C5         -3.1501   -1.3657   -0.9662 C.ar      1 <0>        -0.0755
      7 C6         -3.7269   -1.8852    0.1886 C.ar      1 <0>         0.1468
      8 C7         -3.1965   -1.5805    1.4292 C.ar      1 <0>        -0.1064
      9 C8         -2.0739   -0.7537    1.5217 C.ar      1 <0>        -0.1424
     10 C9         -1.4987   -0.4296    2.8400 C.2       1 <0>         0.5662
     11 O1         -0.5249    0.2947    2.9171 O.2       1 <0>        -0.5001
     12 N2         -2.0522   -0.9360    3.9597 N.am      1 <0>        -0.7401
     13 C10        -1.4807   -0.6140    5.2696 C.3       1 <0>         0.1273
     14 C11        -2.2907   -1.3108    6.3647 C.3       1 <0>        -0.1632
     15 C12        -1.6938   -0.9745    7.7327 C.3       1 <0>        -0.0055
     16 N3         -2.4715   -1.6436    8.7841 N.4       1 <0>        -0.3850
     17 C13        -3.8343   -1.0946    8.8101 C.3       1 <0>        -0.0491
     18 C14        -4.6425   -1.7934    9.9062 C.3       1 <0>         0.0363
     19 O2         -3.9820   -1.6193   11.1628 O.3       1 <0>        -0.3559
     20 C15        -2.6413   -2.1174   11.1803 C.3       1 <0>         0.0356
     21 C16        -1.8293   -1.4191   10.0866 C.3       1 <0>        -0.0437
     22 N4         -4.8495   -2.7198    0.0944 N.am      1 <0>        -0.6790
     23 C17        -5.7811   -2.4920   -0.8526 C.2       1 <0>         0.7056
     24 O3         -5.6075   -1.6161   -1.6779 O.2       1 <0>        -0.5464
     25 N5         -6.9050   -3.2352   -0.8849 N.am      1 <0>        -0.6775
     26 C18        -7.8215   -3.0725   -1.9298 C.ar      1 <0>         0.1641
     27 C19        -9.1810   -3.2291   -1.6935 C.ar      1 <0>        -0.0677
     28 C20       -10.0830   -3.0680   -2.7269 C.ar      1 <0>        -0.1609
     29 C21        -9.6337   -2.7515   -3.9958 C.ar      1 <0>        -0.0329
     30 C22        -8.2807   -2.5949   -4.2343 C.ar      1 <0>        -0.1600
     31 C23        -7.3740   -2.7486   -3.2038 C.ar      1 <0>        -0.0407
     32 C24        -7.7953   -2.2505   -5.6188 C.3       1 <0>         0.5130
     33 F1         -7.7435   -0.8598   -5.7623 F         1 <0>        -0.1683
     34 F2         -6.5179   -2.7871   -5.8121 F         1 <0>        -0.1714
     35 F3         -8.6740   -2.7848   -6.5673 F         1 <0>        -0.1703
     36 C25       -11.5585   -3.2377   -2.4714 C.3       1 <0>         0.5138
     37 F4        -11.7652   -3.5536   -1.1243 F         1 <0>        -0.1742
     38 F5        -12.2250   -2.0468   -2.7788 F         1 <0>        -0.1688
     39 F6        -12.0549   -4.2705   -3.2740 F         1 <0>        -0.1686
     40 H1          0.4174    2.5296    0.6103 H         1 <0>         0.0667
     41 H2         -1.1062    2.4266   -0.3043 H         1 <0>         0.0382
     42 H3         -1.1204    2.2716    1.4689 H         1 <0>         0.0373
     43 H4          1.2852   -0.2080    1.4095 H         1 <0>         0.0387
     44 H5          0.9468   -0.8883   -0.2001 H         1 <0>         0.0494
     45 H6          1.6482    0.7409   -0.0520 H         1 <0>         0.0590
     46 H7         -1.6038   -0.1441   -1.7853 H         1 <0>         0.1389
     47 H8         -3.5698   -1.6071   -1.9316 H         1 <0>         0.1488
     48 H9         -3.6464   -1.9844    2.3242 H         1 <0>         0.1243
     49 H10        -2.8290   -1.5137    3.8982 H         1 <0>         0.3985
     50 H11        -0.4466   -0.9563    5.3090 H         1 <0>         0.0787
     51 H12        -1.5125    0.4645    5.4247 H         1 <0>         0.0782
     52 H13        -3.3248   -0.9684    6.3253 H         1 <0>         0.0939
     53 H14        -2.2589   -2.3893    6.2096 H         1 <0>         0.0949
     54 H15        -0.6598   -1.3169    7.7721 H         1 <0>         0.1383
     55 H16        -1.7257    0.1040    7.8878 H         1 <0>         0.1361
     56 H17        -3.7915   -0.0250    9.0158 H         1 <0>         0.1407
     57 H18        -4.3116   -1.2607    7.8444 H         1 <0>         0.1422
     58 H19        -5.6406   -1.3580    9.9562 H         1 <0>         0.1422
     59 H20        -4.7195   -2.8569    9.6797 H         1 <0>         0.0811
     60 H21        -2.1910   -1.9164   12.1523 H         1 <0>         0.1432
     61 H22        -2.6498   -3.1919   10.9974 H         1 <0>         0.0816
     62 H23        -0.8183   -1.8261   10.0684 H         1 <0>         0.1442
     63 H24        -1.7873   -0.3494   10.2918 H         1 <0>         0.1404
     64 H25        -4.9558   -3.4612    0.7108 H         1 <0>         0.4104
     65 H26        -7.0785   -3.8827   -0.1839 H         1 <0>         0.4153
     66 H27        -9.5324   -3.4770   -0.7028 H         1 <0>         0.1535
     67 H28       -10.3410   -2.6267   -4.8023 H         1 <0>         0.1534
     68 H29        -6.3177   -2.6218   -3.3898 H         1 <0>         0.1605
     69 H30        -2.5112   -2.6338    8.5948 H         1 <0>         0.4231
@<TRIPOS>BOND
     1    1    2 1
     2    1   40 1
     3    1   41 1
     4    1   42 1
     5    2    3 1
     6    2    4 1
     7    3   43 1
     8    3   44 1
     9    3   45 1
    10    4    9 ar
    11    4    5 ar
    12    5    6 ar
    13    5   46 1
    14    6    7 ar
    15    6   47 1
    16    7    8 ar
    17    7   22 1
    18    8    9 ar
    19    8   48 1
    20    9   10 1
    21   10   11 2
    22   10   12 am
    23   12   13 1
    24   12   49 1
    25   13   14 1
    26   13   50 1
    27   13   51 1
    28   14   15 1
    29   14   52 1
    30   14   53 1
    31   15   16 1
    32   15   54 1
    33   15   55 1
    34   16   21 1
    35   16   17 1
    36   16   69 1
    37   17   18 1
    38   17   56 1
    39   17   57 1
    40   18   19 1
    41   18   58 1
    42   18   59 1
    43   19   20 1
    44   20   21 1
    45   20   60 1
    46   20   61 1
    47   21   62 1
    48   21   63 1
    49   22   23 am
    50   22   64 1
    51   23   24 2
    52   23   25 am
    53   25   26 1
    54   25   65 1
    55   26   31 ar
    56   26   27 ar
    57   27   28 ar
    58   27   66 1
    59   28   29 ar
    60   28   36 1
    61   29   30 ar
    62   29   67 1
    63   30   31 ar
    64   30   32 1
    65   31   68 1
    66   32   33 1
    67   32   34 1
    68   32   35 1
    69   36   37 1
    70   36   38 1
    71   36   39 1
@<TRIPOS>MOLECULE
CHEMBL539436
   81    85     0     0     0
SMALL
USER_CHARGES

@<TRIPOS>ATOM
      1 C1         -0.0187    1.5258    0.0104 C.3       1 <0>        -0.1476
      2 C2          0.0021   -0.0041    0.0020 C.3       1 <0>        -0.0506
      3 C3          0.7309   -0.5033    1.2229 C.2       1 <0>        -0.1418
      4 C4          2.0298   -0.8358    1.2988 C.2       1 <0>         0.0424
      5 N1          2.3335   -1.2748    2.5719 N.pl3     1 <0>        -0.4821
      6 C5          1.2387   -1.1212    3.3540 C.ar      1 <0>         0.1169
      7 C6          0.1595   -0.7125    2.5555 C.ar      1 <0>        -0.1033
      8 C7         -1.1122   -0.6058    3.1129 C.ar      1 <0>        -0.0170
      9 C8         -1.2873   -0.8100    4.4789 C.ar      1 <0>        -0.1601
     10 C9         -0.1845   -1.1056    5.2971 C.ar      1 <0>        -0.0209
     11 C10         1.0632   -1.2388    4.7476 C.ar      1 <0>         0.1114
     12 N2          2.2148   -1.4361    5.5206 N.pl3     1 <0>        -0.9537
     13 S1          3.0347   -2.8492    5.4264 S.o2      1 <0>         2.6163
     14 O1          4.2375   -2.6003    6.1409 O.2       1 <0>        -0.9442
     15 O2          2.1110   -3.8183    5.9028 O.2       1 <0>        -0.9402
     16 C11         3.4192   -3.1840    3.6914 C.3       1 <0>        -0.6636
     17 C12         3.6386   -1.8788    2.9120 C.3       1 <0>         0.1381
     18 C13         2.6861   -0.3754    6.4145 C.3       1 <0>         0.0856
     19 C14        -2.6373   -0.7160    5.0696 C.2       1 <0>         0.5706
     20 O3         -2.7928   -0.8939    6.2622 O.2       1 <0>        -0.5049
     21 N3         -3.6973   -0.4329    4.2867 N.am      1 <0>        -0.7269
     22 C15        -5.0367   -0.3396    4.8728 C.3       1 <0>         0.1281
     23 H1         -5.1311   -1.0653    5.6806 H         1 <0>         0.1101
     24 C16        -5.2543    1.0703    5.4257 C.3       1 <0>        -0.1017
     25 C17        -4.3017    1.3147    6.5675 C.ar      1 <0>        -0.0784
     26 C18        -4.6747    0.9947    7.8595 C.ar      1 <0>        -0.1064
     27 C19        -3.8008    1.2189    8.9069 C.ar      1 <0>        -0.1112
     28 C20        -2.5537    1.7628    8.6621 C.ar      1 <0>        -0.1106
     29 C21        -2.1804    2.0820    7.3700 C.ar      1 <0>        -0.1091
     30 C22        -3.0526    1.8538    6.3222 C.ar      1 <0>        -0.1042
     31 C23        -6.0852   -0.6335    3.7981 C.3       1 <0>         0.0748
     32 H2         -5.8768   -1.6013    3.3421 H         1 <0>         0.1339
     33 C24        -7.4758   -0.6590    4.4357 C.3       1 <0>        -0.0478
     34 N4         -8.4687   -1.0584    3.4294 N.4       1 <0>        -0.5037
     35 C25        -9.8038   -1.0829    4.0416 C.3       1 <0>         0.0471
     36 C26       -10.8224   -1.4926    3.0093 C.ar      1 <0>        -0.1271
     37 C27       -11.4436   -0.5319    2.2325 C.ar      1 <0>        -0.1326
     38 C28       -12.3784   -0.9045    1.2846 C.ar      1 <0>        -0.0712
     39 C29       -12.6946   -2.2384    1.1115 C.ar      1 <0>        -0.1762
     40 C30       -12.0728   -3.2039    1.8894 C.ar      1 <0>         0.1377
     41 C31       -11.1304   -2.8278    2.8359 C.ar      1 <0>        -0.1309
     42 O4        -12.3820   -4.5165    1.7210 O.3       1 <0>        -0.3115
     43 C32       -13.3567   -4.8307    0.7244 C.3       1 <0>         0.0218
     44 O5         -6.0391    0.3848    2.7965 O.3       1 <0>        -0.5493
     45 H3          1.0039    1.9031    0.0027 H         1 <0>         0.0557
     46 H4         -0.5459    1.8868   -0.8726 H         1 <0>         0.0583
     47 H5         -0.5289    1.8773    0.9072 H         1 <0>         0.0537
     48 H6         -1.0205   -0.3814    0.0098 H         1 <0>         0.0710
     49 H7          0.5123   -0.3556   -0.8948 H         1 <0>         0.0737
     50 H8          2.7340   -0.7698    0.4826 H         1 <0>         0.1757
     51 H9         -1.9595   -0.3652    2.4879 H         1 <0>         0.1287
     52 H10        -0.3218   -1.2336    6.3607 H         1 <0>         0.1476
     53 H11         4.3238   -3.7895    3.6360 H         1 <0>         0.1641
     54 H12         2.5931   -3.7350    3.2419 H         1 <0>         0.1462
     55 H13         4.1890   -2.0921    1.9957 H         1 <0>         0.1231
     56 H14         4.2116   -1.1826    3.5243 H         1 <0>         0.0967
     57 H15         2.2273   -0.4966    7.3957 H         1 <0>         0.0672
     58 H16         3.7702   -0.4360    6.5103 H         1 <0>         0.0949
     59 H17         2.4115    0.5957    6.0024 H         1 <0>         0.0779
     60 H18        -3.5733   -0.2910    3.3352 H         1 <0>         0.4049
     61 H19        -5.0727    1.8015    4.6380 H         1 <0>         0.0818
     62 H20        -6.2801    1.1667    5.7814 H         1 <0>         0.0789
     63 H21        -5.6490    0.5697    8.0507 H         1 <0>         0.1117
     64 H22        -4.0925    0.9695    9.9164 H         1 <0>         0.1190
     65 H23        -1.8712    1.9386    9.4805 H         1 <0>         0.1194
     66 H24        -1.2062    2.5073    7.1789 H         1 <0>         0.1170
     67 H25        -2.7595    2.0998    5.3122 H         1 <0>         0.1107
     68 H26        -7.4850   -1.3735    5.2588 H         1 <0>         0.1487
     69 H27        -7.7205    0.3337    4.8135 H         1 <0>         0.1424
     70 H28        -8.4601   -0.3970    2.6675 H         1 <0>         0.4324
     71 H29        -9.8130   -1.7974    4.8647 H         1 <0>         0.1410
     72 H30       -10.0485   -0.0902    4.4194 H         1 <0>         0.1416
     73 H31       -11.1984    0.5113    2.3667 H         1 <0>         0.1338
     74 H32       -12.8623   -0.1524    0.6791 H         1 <0>         0.1394
     75 H33       -13.4255   -2.5289    0.3714 H         1 <0>         0.1408
     76 H34       -10.6415   -3.5781    3.4396 H         1 <0>         0.1399
     77 H35       -13.5098   -5.9095    0.6932 H         1 <0>         0.1109
     78 H36       -14.2975   -4.3371    0.9678 H         1 <0>         0.0626
     79 H37       -13.0062   -4.4853   -0.2482 H         1 <0>         0.0620
     80 H38        -6.2156    1.2745    3.1317 H         1 <0>         0.3912
     81 H39        -8.2421   -1.9773    3.0796 H         1 <0>         0.4295
@<TRIPOS>BOND
     1    1    2 1
     2    1   45 1
     3    1   46 1
     4    1   47 1
     5    2    3 1
     6    2   48 1
     7    2   49 1
     8    3    7 1
     9    3    4 2
    10    4    5 1
    11    4   50 1
    12    5   17 1
    13    5    6 1
    14    6   11 ar
    15    6    7 ar
    16    7    8 ar
    17    8    9 ar
    18    8   51 1
    19    9   10 ar
    20    9   19 1
    21   10   11 ar
    22   10   52 1
    23   11   12 1
    24   12   13 1
    25   12   18 1
    26   13   14 2
    27   13   15 2
    28   13   16 1
    29   16   17 1
    30   16   53 1
    31   16   54 1
    32   17   55 1
    33   17   56 1
    34   18   57 1
    35   18   58 1
    36   18   59 1
    37   19   20 2
    38   19   21 am
    39   21   22 1
    40   21   60 1
    41   22   23 1
    42   22   24 1
    43   22   31 1
    44   24   25 1
    45   24   61 1
    46   24   62 1
    47   25   30 ar
    48   25   26 ar
    49   26   27 ar
    50   26   63 1
    51   27   28 ar
    52   27   64 1
    53   28   29 ar
    54   28   65 1
    55   29   30 ar
    56   29   66 1
    57   30   67 1
    58   31   32 1
    59   31   33 1
    60   31   44 1
    61   33   34 1
    62   33   68 1
    63   33   69 1
    64   34   35 1
    65   34   70 1
    66   34   81 1
    67   35   36 1
    68   35   71 1
    69   35   72 1
    70   36   41 ar
    71   36   37 ar
    72   37   38 ar
    73   37   73 1
    74   38   39 ar
    75   38   74 1
    76   39   40 ar
    77   39   75 1
    78   40   41 ar
    79   40   42 1
    80   41   76 1
    81   42   43 1
    82   43   77 1
    83   43   78 1
    84   43   79 1
    85   44   80 1
@<TRIPOS>MOLECULE
CHEMBL1097340
   81    83     0     0     0
SMALL
USER_CHARGES

@<TRIPOS>ATOM
      1 C1         -4.1265   -5.7372    2.1470 C.3       1 <0>        -0.1534
      2 C2         -2.6125   -5.5515    2.2667 C.3       1 <0>        -0.1477
      3 C3         -2.1551   -4.4563    1.3012 C.3       1 <0>         0.0958
      4 N1         -0.7346   -4.1736    1.5211 N.am      1 <0>        -0.6064
      5 C4          0.2852   -5.0554    0.9476 C.3       1 <0>         0.1136
      6 C5          0.6648   -4.5560   -0.4479 C.3       1 <0>        -0.1397
      7 C6          1.7297   -5.4769   -1.0468 C.3       1 <0>        -0.1495
      8 C7         -0.3658   -3.1023    2.2510 C.2       1 <0>         0.5610
      9 O1          0.8089   -2.9096    2.4971 O.2       1 <0>        -0.5245
     10 C8         -1.3901   -2.1613    2.7525 C.ar      1 <0>        -0.1293
     11 C9         -2.5330   -2.6466    3.3928 C.ar      1 <0>        -0.0767
     12 C10        -3.4904   -1.7693    3.8616 C.ar      1 <0>        -0.0943
     13 C11        -3.3258   -0.4076    3.7013 C.ar      1 <0>        -0.0676
     14 C12        -2.1881    0.0910    3.0626 C.ar      1 <0>        -0.1333
     15 C13        -1.2150   -0.7886    2.5926 C.ar      1 <0>        -0.0152
     16 C14        -2.0139    1.5492    2.8909 C.2       1 <0>         0.5630
     17 O2         -1.0746    1.9777    2.2494 O.2       1 <0>        -0.5166
     18 N2         -2.8966    2.4033    3.4458 N.am      1 <0>        -0.7212
     19 C15        -2.8044    3.8379    3.1635 C.3       1 <0>         0.1238
     20 H1         -1.7761    4.0923    2.9067 H         1 <0>         0.1273
     21 C16        -3.7240    4.1872    1.9916 C.3       1 <0>        -0.1021
     22 C17        -3.2174    3.5195    0.7392 C.ar      1 <0>        -0.0139
     23 C18        -2.2186    4.1170   -0.0062 C.ar      1 <0>        -0.1454
     24 C19        -1.7527    3.5047   -1.1574 C.ar      1 <0>         0.1388
     25 C20        -2.2873    2.2935   -1.5614 C.ar      1 <0>        -0.1953
     26 C21        -3.2873    1.6958   -0.8139 C.ar      1 <0>         0.1333
     27 C22        -3.7481    2.3074    0.3398 C.ar      1 <0>        -0.1610
     28 F1         -3.8100    0.5137   -1.2070 F         1 <0>        -0.1326
     29 F2         -0.7770    4.0894   -1.8863 F         1 <0>        -0.1308
     30 C23        -3.2319    4.6297    4.4009 C.3       1 <0>         0.1088
     31 H2         -2.6348    4.3159    5.2571 H         1 <0>         0.1119
     32 C24        -3.0176    6.1236    4.1496 C.3       1 <0>         0.0457
     33 H3         -3.6145    6.4377    3.2933 H         1 <0>         0.0978
     34 C25        -3.4444    6.9170    5.3891 C.3       1 <0>         0.0881
     35 N3         -3.0918    8.3301    5.1836 N.pl3     1 <0>        -1.0020
     36 C26        -1.7167    8.6515    4.7725 C.3       1 <0>         0.0752
     37 C27        -1.3580    7.7898    3.5572 C.3       1 <0>         0.0495
     38 N4         -1.5966    6.3757    3.8754 N.3       1 <0>        -0.6710
     39 S1         -4.2135    9.5274    5.4086 S.o2      1 <0>         2.6094
     40 O3         -3.7768   10.5942    4.5776 O.2       1 <0>        -0.9517
     41 O4         -5.4667    8.8976    5.1803 O.2       1 <0>        -0.9513
     42 C28        -4.0563    9.9912    7.1552 C.3       1 <0>        -0.6737
     43 O5         -4.6141    4.3851    4.6688 O.3       1 <0>        -0.5531
     44 C29        -4.7210   -2.3001    4.5508 C.3       1 <0>        -0.1169
     45 H4         -4.3867   -5.9392    1.1080 H         1 <0>         0.0597
     46 H5         -4.4401   -6.5751    2.7696 H         1 <0>         0.0612
     47 H6         -4.6312   -4.8296    2.4781 H         1 <0>         0.0577
     48 H7         -2.3614   -5.2640    3.2877 H         1 <0>         0.0685
     49 H8         -2.1110   -6.4870    2.0189 H         1 <0>         0.0707
     50 H9         -2.3042   -4.7913    0.2748 H         1 <0>         0.0806
     51 H10        -2.7370   -3.5514    1.4763 H         1 <0>         0.0906
     52 H11         1.1681   -5.0536    1.5868 H         1 <0>         0.0868
     53 H12        -0.1096   -6.0689    0.8760 H         1 <0>         0.0791
     54 H13        -0.2182   -4.5578   -1.0870 H         1 <0>         0.0628
     55 H14         1.0595   -3.5425   -0.3762 H         1 <0>         0.0660
     56 H15         2.0002   -5.1212   -2.0410 H         1 <0>         0.0583
     57 H16         2.6127   -5.4752   -0.4077 H         1 <0>         0.0575
     58 H17         1.3350   -6.4904   -1.1185 H         1 <0>         0.0554
     59 H18        -2.6681   -3.7104    3.5210 H         1 <0>         0.1430
     60 H19        -4.0785    0.2733    4.0703 H         1 <0>         0.1311
     61 H20        -0.3312   -0.4081    2.1023 H         1 <0>         0.1418
     62 H21        -3.5929    2.0681    4.0320 H         1 <0>         0.4028
     63 H22        -4.7342    3.8385    2.2061 H         1 <0>         0.0829
     64 H23        -3.7354    5.2676    1.8482 H         1 <0>         0.0957
     65 H24        -1.8016    5.0620    0.3092 H         1 <0>         0.1424
     66 H25        -1.9248    1.8154   -2.4594 H         1 <0>         0.1450
     67 H26        -4.5252    1.8391    0.9256 H         1 <0>         0.1353
     68 H27        -4.5213    6.8251    5.5298 H         1 <0>         0.1077
     69 H28        -2.9236    6.5336    6.2665 H         1 <0>         0.0717
     70 H29        -1.6514    9.7063    4.5056 H         1 <0>         0.1023
     71 H30        -1.0298    8.4348    5.5906 H         1 <0>         0.0710
     72 H31        -1.9777    8.0810    2.7091 H         1 <0>         0.0828
     73 H32        -0.3070    7.9338    3.3067 H         1 <0>         0.0951
     74 H33        -1.0207    6.0771    4.6482 H         1 <0>         0.3459
     75 H34        -3.0437   10.3461    7.3472 H         1 <0>         0.1271
     76 H35        -4.7688   10.7831    7.3864 H         1 <0>         0.1295
     77 H36        -4.2619    9.1232    7.7816 H         1 <0>         0.1273
     78 H37        -5.2057    4.6410    3.9479 H         1 <0>         0.3799
     79 H38        -4.5316   -2.3807    5.6212 H         1 <0>         0.0757
     80 H39        -5.5552   -1.6198    4.3797 H         1 <0>         0.0719
     81 H40        -4.9662   -3.2836    4.1501 H         1 <0>         0.0707
@<TRIPOS>BOND
     1    1    2 1
     2    1   45 1
     3    1   46 1
     4    1   47 1
     5    2    3 1
     6    2   48 1
     7    2   49 1
     8    3    4 1
     9    3   50 1
    10    3   51 1
    11    4    5 1
    12    4    8 am
    13    5    6 1
    14    5   52 1
    15    5   53 1
    16    6    7 1
    17    6   54 1
    18    6   55 1
    19    7   56 1
    20    7   57 1
    21    7   58 1
    22    8    9 2
    23    8   10 1
    24   10   15 ar
    25   10   11 ar
    26   11   12 ar
    27   11   59 1
    28   12   13 ar
    29   12   44 1
    30   13   14 ar
    31   13   60 1
    32   14   15 ar
    33   14   16 1
    34   15   61 1
    35   16   17 2
    36   16   18 am
    37   18   19 1
    38   18   62 1
    39   19   20 1
    40   19   21 1
    41   19   30 1
    42   21   22 1
    43   21   63 1
    44   21   64 1
    45   22   27 ar
    46   22   23 ar
    47   23   24 ar
    48   23   65 1
    49   24   25 ar
    50   24   29 1
    51   25   26 ar
    52   25   66 1
    53   26   27 ar
    54   26   28 1
    55   27   67 1
    56   30   31 1
    57   30   32 1
    58   30   43 1
    59   32   33 1
    60   32   38 1
    61   32   34 1
    62   34   35 1
    63   34   68 1
    64   34   69 1
    65   35   36 1
    66   35   39 1
    67   36   37 1
    68   36   70 1
    69   36   71 1
    70   37   38 1
    71   37   72 1
    72   37   73 1
    73   38   74 1
    74   39   40 2
    75   39   41 2
    76   39   42 1
    77   42   75 1
    78   42   76 1
    79   42   77 1
    80   43   78 1
    81   44   79 1
    82   44   80 1
    83   44   81 1
@<TRIPOS>MOLECULE
CHEMBL1097340__1
   82    84     0     0     0
SMALL
USER_CHARGES

@<TRIPOS>ATOM
      1 C1          2.1109    0.7407   -1.2148 C.3       1 <0>        -0.1509
      2 C2          2.5909   -0.6865   -1.4862 C.3       1 <0>        -0.1384
      3 C3          3.1786   -1.2794   -0.2040 C.3       1 <0>         0.1136
      4 N1          3.6382   -2.6459   -0.4639 N.am      1 <0>        -0.6044
      5 C4          5.0125   -2.8837   -0.9123 C.3       1 <0>         0.0991
      6 C5          5.9711   -2.7108    0.2675 C.3       1 <0>        -0.1469
      7 C6          7.3871   -3.0962   -0.1652 C.3       1 <0>        -0.1528
      8 C7          2.7968   -3.6844   -0.2904 C.2       1 <0>         0.5576
      9 O1          1.6326   -3.4822   -0.0052 O.2       1 <0>        -0.5229
     10 C8          3.2898   -5.0695   -0.4469 C.ar      1 <0>        -0.1234
     11 C9          4.4553   -5.4759    0.2074 C.ar      1 <0>        -0.0635
     12 C10         4.9170   -6.7689    0.0623 C.ar      1 <0>        -0.0894
     13 C11         4.2312   -7.6688   -0.7295 C.ar      1 <0>        -0.0680
     14 C12         3.0649   -7.2755   -1.3895 C.ar      1 <0>        -0.1447
     15 C13         2.5900   -5.9738   -1.2424 C.ar      1 <0>        -0.0146
     16 C14         2.3324   -8.2400   -2.2377 C.2       1 <0>         0.5722
     17 O2          1.3763   -7.8709   -2.8913 O.2       1 <0>        -0.5175
     18 N2          2.7248   -9.5285   -2.2861 N.am      1 <0>        -0.7199
     19 C15         2.0444  -10.4683   -3.1805 C.3       1 <0>         0.1048
     20 H1          1.0338  -10.1125   -3.3808 H         1 <0>         0.1007
     21 C16         2.8187  -10.5718   -4.4961 C.3       1 <0>        -0.1111
     22 C17         2.7390   -9.2582   -5.2305 C.ar      1 <0>        -0.0298
     23 C18         1.6389   -8.9723   -6.0167 C.ar      1 <0>        -0.1596
     24 C19         1.5648   -7.7659   -6.6923 C.ar      1 <0>         0.1458
     25 C20         2.5929   -6.8459   -6.5797 C.ar      1 <0>        -0.1866
     26 C21         3.6940   -7.1331   -5.7917 C.ar      1 <0>         0.1456
     27 C22         3.7635   -8.3381   -5.1128 C.ar      1 <0>        -0.1554
     28 F1          4.6982   -6.2361   -5.6808 F         1 <0>        -0.1242
     29 F2          0.4897   -7.4870   -7.4615 F         1 <0>        -0.1261
     30 C23         1.9782  -11.8459   -2.5181 C.3       1 <0>         0.0884
     31 H2          1.5049  -11.7564   -1.5403 H         1 <0>         0.1379
     32 C24         1.1599  -12.7950   -3.3958 C.3       1 <0>        -0.0251
     33 H3          1.6330  -12.8846   -4.3736 H         1 <0>         0.1546
     34 C25         1.0931  -14.1746   -2.7323 C.3       1 <0>         0.1045
     35 N3          0.1965  -15.0303   -3.5247 N.pl3     1 <0>        -1.0164
     36 C26        -1.1334  -14.5063   -3.8727 C.3       1 <0>         0.0894
     37 C27        -0.9615  -13.1111   -4.4824 C.3       1 <0>        -0.0188
     38 N4         -0.1995  -12.2637   -3.5564 N.4       1 <0>        -0.5032
     39 S1          0.6709  -16.5402   -4.0117 S.o2      1 <0>         2.6047
     40 O3         -0.0896  -16.7988   -5.1839 O.2       1 <0>        -0.9379
     41 O4          2.0893  -16.4740   -4.0684 O.2       1 <0>        -0.9380
     42 C28         0.1502  -17.6471   -2.6723 C.3       1 <0>        -0.6658
     43 O5          3.3010  -12.3632   -2.3615 O.3       1 <0>        -0.5204
     44 C29         6.1753   -7.2000    0.7707 C.3       1 <0>        -0.1199
     45 H4          1.3465    0.7254   -0.4379 H         1 <0>         0.0579
     46 H5          2.9521    1.3504   -0.8848 H         1 <0>         0.0567
     47 H6          1.6922    1.1631   -2.1282 H         1 <0>         0.0592
     48 H7          1.7498   -1.2962   -1.8161 H         1 <0>         0.0661
     49 H8          3.3554   -0.6711   -2.2630 H         1 <0>         0.0624
     50 H9          4.0197   -0.6697    0.1260 H         1 <0>         0.0817
     51 H10         2.4141   -1.2947    0.5729 H         1 <0>         0.0860
     52 H11         5.0967   -3.8977   -1.3034 H         1 <0>         0.0858
     53 H12         5.2677   -2.1699   -1.6955 H         1 <0>         0.0814
     54 H13         5.9613   -1.6710    0.5942 H         1 <0>         0.0721
     55 H14         5.6550   -3.3529    1.0896 H         1 <0>         0.0673
     56 H15         7.4161   -4.1580   -0.4095 H         1 <0>         0.0560
     57 H16         7.6703   -2.5138   -1.0420 H         1 <0>         0.0601
     58 H17         8.0838   -2.8912    0.6476 H         1 <0>         0.0626
     59 H18         4.9966   -4.7769    0.8278 H         1 <0>         0.1438
     60 H19         4.5978   -8.6788   -0.8388 H         1 <0>         0.1299
     61 H20         1.6860   -5.6660   -1.7468 H         1 <0>         0.1421
     62 H21         3.4577   -9.8336   -1.7287 H         1 <0>         0.4135
     63 H22         3.8619  -10.8079   -4.2861 H         1 <0>         0.1023
     64 H23         2.3847  -11.3593   -5.1121 H         1 <0>         0.0897
     65 H24         0.8368   -9.6902   -6.1044 H         1 <0>         0.1317
     66 H25         2.5361   -5.9048   -7.1066 H         1 <0>         0.1522
     67 H26         4.6205   -8.5606   -4.4944 H         1 <0>         0.1400
     68 H27         2.0894  -14.6157   -2.7033 H         1 <0>         0.1473
     69 H28         0.7037  -14.0752   -1.7191 H         1 <0>         0.1038
     70 H29        -1.6091  -15.1668   -4.5977 H         1 <0>         0.1432
     71 H30        -1.7476  -14.4405   -2.9746 H         1 <0>         0.1022
     72 H31        -0.4243  -13.1911   -5.4274 H         1 <0>         0.1408
     73 H32        -1.9417  -12.6679   -4.6578 H         1 <0>         0.1541
     74 H33        -0.6614  -12.2481   -2.6595 H         1 <0>         0.4311
     75 H34        -0.9310  -17.5845   -2.5488 H         1 <0>         0.1324
     76 H35         0.4290  -18.6717   -2.9185 H         1 <0>         0.1396
     77 H36         0.6396  -17.3503   -1.7447 H         1 <0>         0.1326
     78 H37         3.7828  -12.4694   -3.1932 H         1 <0>         0.3933
     79 H38         5.9214   -7.5942    1.7547 H         1 <0>         0.0782
     80 H39         6.6740   -7.9737    0.1870 H         1 <0>         0.0726
     81 H40         6.8407   -6.3439    0.8829 H         1 <0>         0.0743
     82 H41        -0.1513  -11.3251   -3.9236 H         1 <0>         0.4310
@<TRIPOS>BOND
     1    1    2 1
     2    1   45 1
     3    1   46 1
     4    1   47 1
     5    2    3 1
     6    2   48 1
     7    2   49 1
     8    3    4 1
     9    3   50 1
    10    3   51 1
    11    4    5 1
    12    4    8 am
    13    5    6 1
    14    5   52 1
    15    5   53 1
    16    6    7 1
    17    6   54 1
    18    6   55 1
    19    7   56 1
    20    7   57 1
    21    7   58 1
    22    8    9 2
    23    8   10 1
    24   10   15 ar
    25   10   11 ar
    26   11   12 ar
    27   11   59 1
    28   12   13 ar
    29   12   44 1
    30   13   14 ar
    31   13   60 1
    32   14   15 ar
    33   14   16 1
    34   15   61 1
    35   16   17 2
    36   16   18 am
    37   18   19 1
    38   18   62 1
    39   19   20 1
    40   19   21 1
    41   19   30 1
    42   21   22 1
    43   21   63 1
    44   21   64 1
    45   22   27 ar
    46   22   23 ar
    47   23   24 ar
    48   23   65 1
    49   24   25 ar
    50   24   29 1
    51   25   26 ar
    52   25   66 1
    53   26   27 ar
    54   26   28 1
    55   27   67 1
    56   30   31 1
    57   30   32 1
    58   30   43 1
    59   32   33 1
    60   32   38 1
    61   32   34 1
    62   34   35 1
    63   34   68 1
    64   34   69 1
    65   35   36 1
    66   35   39 1
    67   36   37 1
    68   36   70 1
    69   36   71 1
    70   37   38 1
    71   37   72 1
    72   37   73 1
    73   38   74 1
    74   38   82 1
    75   39   40 2
    76   39   41 2
    77   39   42 1
    78   42   75 1
    79   42   76 1
    80   42   77 1
    81   43   78 1
    82   44   79 1
    83   44   80 1
    84   44   81 1
@<TRIPOS>MOLECULE
CHEMBL570556
   71    73     0     0     0
SMALL
USER_CHARGES

@<TRIPOS>ATOM
      1 C1         -6.2325   -4.2708    4.7006 C.3       1 <0>        -0.1826
      2 C2         -4.9654   -3.5729    4.2784 C.2       1 <0>         0.5113
      3 O1         -3.9501   -4.2128    4.1035 O.2       1 <0>        -0.5321
      4 N1         -4.9604   -2.2377    4.0951 N.am      1 <0>        -0.7325
      5 C3         -3.7285   -1.5592    3.6846 C.3       1 <0>         0.1324
      6 H1         -3.9175   -0.4901    3.5877 H         1 <0>         0.1057
      7 C4         -2.6431   -1.7919    4.7375 C.3       1 <0>        -0.0987
      8 C5         -3.0487   -1.1336    6.0311 C.ar      1 <0>        -0.0286
      9 C6         -2.6920    0.1782    6.2798 C.ar      1 <0>        -0.1647
     10 C7         -3.0637    0.7839    7.4683 C.ar      1 <0>         0.1399
     11 C8         -3.7933    0.0751    8.4071 C.ar      1 <0>        -0.1921
     12 C9         -4.1504   -1.2385    8.1567 C.ar      1 <0>         0.1391
     13 C10        -3.7819   -1.8405    6.9653 C.ar      1 <0>        -0.1582
     14 F1         -4.8624   -1.9315    9.0721 F         1 <0>        -0.1257
     15 F2         -2.7142    2.0660    7.7116 F         1 <0>        -0.1254
     16 C11        -3.2622   -2.1187    2.3391 C.3       1 <0>         0.0683
     17 H2         -3.0732   -3.1879    2.4361 H         1 <0>         0.1456
     18 C12        -4.3476   -1.8861    1.2862 C.3       1 <0>        -0.0563
     19 N2         -3.9522   -2.5277    0.0253 N.4       1 <0>        -0.5015
     20 C13        -4.9314   -2.1993   -1.0193 C.3       1 <0>         0.1128
     21 C14        -4.5387   -2.8944   -2.3266 C.3       1 <0>        -0.1677
     22 C15        -4.5852   -4.4110   -2.1229 C.3       1 <0>         0.0439
     23 O2         -5.8945   -4.7931   -1.6966 O.3       1 <0>        -0.3561
     24 C16        -6.2971   -4.2108   -0.4553 C.3       1 <0>         0.0451
     25 C17        -6.3194   -2.6861   -0.5920 C.3       1 <0>        -0.1738
     26 C18        -4.9630   -0.7073   -1.2294 C.ar      1 <0>        -0.1226
     27 C19        -3.8475    0.0556   -0.9381 C.ar      1 <0>        -0.1417
     28 C20        -3.8765    1.4240   -1.1308 C.ar      1 <0>        -0.0950
     29 C21        -5.0210    2.0297   -1.6153 C.ar      1 <0>        -0.0978
     30 C22        -6.1359    1.2669   -1.9074 C.ar      1 <0>        -0.0441
     31 C23        -6.1054   -0.1024   -1.7187 C.ar      1 <0>        -0.0874
     32 C24        -7.3835    1.9272   -2.4351 C.3       1 <0>        -0.0350
     33 C25        -7.1516    3.4349   -2.5533 C.3       1 <0>        -0.1512
     34 C26        -7.7204    1.3535   -3.8129 C.3       1 <0>        -0.1428
     35 C27        -8.5452    1.6636   -1.4749 C.3       1 <0>        -0.1409
     36 O3         -2.0606   -1.4570    1.9388 O.3       1 <0>        -0.5418
     37 H3         -6.2834   -4.3046    5.7889 H         1 <0>         0.1030
     38 H4         -7.0936   -3.7261    4.3133 H         1 <0>         0.0836
     39 H5         -6.2371   -5.2864    4.3049 H         1 <0>         0.1002
     40 H6         -5.7724   -1.7259    4.2349 H         1 <0>         0.4119
     41 H7         -2.5166   -2.8624    4.8986 H         1 <0>         0.1085
     42 H8         -1.7028   -1.3631    4.3909 H         1 <0>         0.1016
     43 H9         -2.1228    0.7311    5.5472 H         1 <0>         0.1429
     44 H10        -4.0834    0.5466    9.3344 H         1 <0>         0.1525
     45 H11        -4.0642   -2.8641    6.7678 H         1 <0>         0.1359
     46 H12        -5.2879   -2.3149    1.6329 H         1 <0>         0.1409
     47 H13        -4.4740   -0.8155    1.1251 H         1 <0>         0.1438
     48 H14        -3.0410   -2.1937   -0.2508 H         1 <0>         0.4304
     49 H15        -5.2372   -2.6111   -3.1139 H         1 <0>         0.1241
     50 H16        -3.5292   -2.5956   -2.6091 H         1 <0>         0.1035
     51 H17        -4.3482   -4.9114   -3.0618 H         1 <0>         0.1267
     52 H18        -3.8575   -4.6983   -1.3639 H         1 <0>         0.0498
     53 H19        -7.2934   -4.5668   -0.1929 H         1 <0>         0.1247
     54 H20        -5.5919   -4.4954    0.3255 H         1 <0>         0.0480
     55 H21        -6.5835   -2.2383    0.3661 H         1 <0>         0.1014
     56 H22        -7.0539   -2.3985   -1.3443 H         1 <0>         0.1244
     57 H23        -2.9535   -0.4175   -0.5596 H         1 <0>         0.1165
     58 H24        -3.0053    2.0200   -0.9025 H         1 <0>         0.1366
     59 H25        -5.0439    3.0990   -1.7652 H         1 <0>         0.1403
     60 H26        -6.9753   -0.6990   -1.9505 H         1 <0>         0.1339
     61 H27        -6.3240    3.6227   -3.2373 H         1 <0>         0.0618
     62 H28        -8.0540    3.9125   -2.9349 H         1 <0>         0.0676
     63 H29        -6.9116    3.8436   -1.5717 H         1 <0>         0.0610
     64 H30        -7.8857    0.2794   -3.7287 H         1 <0>         0.0560
     65 H31        -8.6228    1.8311   -4.1946 H         1 <0>         0.0680
     66 H32        -6.8929    1.5413   -4.4969 H         1 <0>         0.0596
     67 H33        -8.3052    2.0723   -0.4934 H         1 <0>         0.0581
     68 H34        -9.4476    2.1412   -1.8566 H         1 <0>         0.0679
     69 H35        -8.7104    0.5895   -1.3907 H         1 <0>         0.0553
     70 H36        -2.1549   -0.5005    1.8328 H         1 <0>         0.3868
     71 H37        -3.9193   -3.5281    0.1528 H         1 <0>         0.4247
@<TRIPOS>BOND
     1    1    2 1
     2    1   37 1
     3    1   38 1
     4    1   39 1
     5    2    3 2
     6    2    4 am
     7    4    5 1
     8    4   40 1
     9    5    6 1
    10    5    7 1
    11    5   16 1
    12    7    8 1
    13    7   41 1
    14    7   42 1
    15    8   13 ar
    16    8    9 ar
    17    9   10 ar
    18    9   43 1
    19   10   11 ar
    20   10   15 1
    21   11   12 ar
    22   11   44 1
    23   12   13 ar
    24   12   14 1
    25   13   45 1
    26   16   17 1
    27   16   18 1
    28   16   36 1
    29   18   19 1
    30   18   46 1
    31   18   47 1
    32   19   20 1
    33   19   48 1
    34   19   71 1
    35   20   25 1
    36   20   21 1
    37   20   26 1
    38   21   22 1
    39   21   49 1
    40   21   50 1
    41   22   23 1
    42   22   51 1
    43   22   52 1
    44   23   24 1
    45   24   25 1
    46   24   53 1
    47   24   54 1
    48   25   55 1
    49   25   56 1
    50   26   31 ar
    51   26   27 ar
    52   27   28 ar
    53   27   57 1
    54   28   29 ar
    55   28   58 1
    56   29   30 ar
    57   29   59 1
    58   30   31 ar
    59   30   32 1
    60   31   60 1
    61   32   33 1
    62   32   34 1
    63   32   35 1
    64   33   61 1
    65   33   62 1
    66   33   63 1
    67   34   64 1
    68   34   65 1
    69   34   66 1
    70   35   67 1
    71   35   68 1
    72   35   69 1
    73   36   70 1
@<TRIPOS>MOLECULE
CHEMBL271914
   70    73     0     0     0
SMALL
USER_CHARGES

@<TRIPOS>ATOM
      1 C1          2.0214   -2.5193    1.8741 C.3       1 <0>        -0.1508
      2 C2          0.8990   -1.7885    1.1343 C.3       1 <0>        -0.1228
      3 C3         -0.3683   -2.6454    1.1556 C.3       1 <0>         0.0568
      4 O1         -1.4165   -1.9629    0.4647 O.3       1 <0>        -0.3161
      5 C4         -2.6187   -2.5920    0.3913 C.ar      1 <0>         0.1274
      6 C5         -2.7845   -3.8392    0.9788 C.ar      1 <0>        -0.1986
      7 C6         -4.0024   -4.4810    0.9062 C.ar      1 <0>        -0.0833
      8 C7         -5.0702   -3.8750    0.2411 C.ar      1 <0>        -0.0498
      9 C8         -4.8993   -2.6205   -0.3479 C.ar      1 <0>        -0.0614
     10 C9         -3.6796   -1.9833   -0.2662 C.ar      1 <0>        -0.1468
     11 C10        -6.3772   -4.5595    0.1605 C.2       1 <0>         0.0753
     12 C11        -7.5859   -3.9570   -0.0359 C.2       1 <0>        -0.1773
     13 C12        -8.5623   -4.9594   -0.0478 C.2       1 <0>        -0.1548
     14 C13        -7.9306   -6.1540    0.1415 C.2       1 <0>         0.0580
     15 N1         -6.5856   -5.9111    0.2640 N.pl3     1 <0>        -0.4133
     16 C14        -5.5480   -6.9240    0.4733 C.3       1 <0>         0.0726
     17 C15        -5.4290   -7.2245    1.9452 C.2       1 <0>         0.4923
     18 O2         -6.1424   -6.6481    2.7428 O.2       1 <0>        -0.5139
     19 N2         -4.5425   -8.1216    2.3720 N.2       1 <0>        -0.7157
     20 C16        -4.9323   -9.1186    3.1561 C.2       1 <0>         0.7086
     21 N3         -4.0089   -9.9648    3.6920 N.pl3     1 <0>        -0.8227
     22 N4         -6.2560   -9.2960    3.4252 N.pl3     1 <0>        -0.7257
     23 C17        -6.6780  -10.3240    4.3798 C.3       1 <0>         0.1351
     24 C18        -6.7940  -11.6701    3.6618 C.3       1 <0>        -0.1314
     25 C19        -7.2347  -12.7437    4.6588 C.3       1 <0>        -0.0887
     26 C20        -8.5931  -12.3629    5.2509 C.3       1 <0>        -0.1551
     27 C21        -8.4772  -11.0168    5.9690 C.3       1 <0>        -0.0871
     28 C22        -8.0364   -9.9432    4.9720 C.3       1 <0>        -0.1207
     29 C23        -9.0273  -13.4203    6.2330 C.2       1 <0>         0.4943
     30 O3         -9.7279  -13.1183    7.1839 O.co2     1 <0>        -0.6982
     31 O4         -8.6778  -14.5779    6.0765 O.co2     1 <0>        -0.7001
     32 C24        -8.5811   -7.4793    0.1992 C.ar      1 <0>        -0.0110
     33 C25        -8.0992   -8.5317   -0.5817 C.ar      1 <0>        -0.1101
     34 C26        -8.7109   -9.7666   -0.5228 C.ar      1 <0>        -0.1116
     35 C27        -9.8003   -9.9644    0.3074 C.ar      1 <0>        -0.1022
     36 C28       -10.2837   -8.9268    1.0842 C.ar      1 <0>        -0.1067
     37 C29        -9.6777   -7.6868    1.0396 C.ar      1 <0>        -0.0158
     38 Cl1       -10.2808   -6.3876    2.0203 Cl        1 <0>        -0.0506
     39 H1          2.9242   -1.9088    1.8589 H         1 <0>         0.0643
     40 H2          1.7204   -2.6972    2.9065 H         1 <0>         0.0582
     41 H3          2.2191   -3.4725    1.3839 H         1 <0>         0.0581
     42 H4          0.7013   -0.8352    1.6246 H         1 <0>         0.0731
     43 H5          1.2001   -1.6106    0.1019 H         1 <0>         0.0731
     44 H6         -0.1705   -3.5987    0.6654 H         1 <0>         0.0626
     45 H7         -0.6693   -2.8233    2.1880 H         1 <0>         0.0625
     46 H8         -1.9581   -4.3072    1.4930 H         1 <0>         0.1286
     47 H9         -4.1303   -5.4514    1.3628 H         1 <0>         0.1272
     48 H10        -5.7226   -2.1486   -0.8635 H         1 <0>         0.1358
     49 H11        -3.5477   -1.0112   -0.7180 H         1 <0>         0.1335
     50 H12        -7.7578   -2.8980   -0.1594 H         1 <0>         0.1393
     51 H13        -9.6239   -4.8138   -0.1824 H         1 <0>         0.1381
     52 H14        -5.8156   -7.8344   -0.0630 H         1 <0>         0.1137
     53 H15        -4.5945   -6.5497    0.1007 H         1 <0>         0.1218
     54 H16        -3.0665   -9.8385    3.5004 H         1 <0>         0.4217
     55 H17        -4.2939  -10.6936    4.2651 H         1 <0>         0.4140
     56 H18        -6.9190   -8.7417    2.9847 H         1 <0>         0.4159
     57 H19        -5.9417  -10.4012    5.1798 H         1 <0>         0.0812
     58 H20        -7.5303  -11.5929    2.8618 H         1 <0>         0.0652
     59 H21        -5.8262  -11.9414    3.2399 H         1 <0>         0.0566
     60 H22        -7.3173  -13.7026    4.1472 H         1 <0>         0.0717
     61 H23        -6.4984  -12.8209    5.4588 H         1 <0>         0.0553
     62 H24        -9.3294  -12.2857    4.4510 H         1 <0>         0.0622
     63 H25        -9.4449  -10.7455    6.3909 H         1 <0>         0.0734
     64 H26        -7.7408  -11.0940    6.7690 H         1 <0>         0.0560
     65 H27        -7.9538   -8.9843    5.4835 H         1 <0>         0.0643
     66 H28        -8.7727   -9.8660    4.1720 H         1 <0>         0.0642
     67 H29        -7.2496   -8.3790   -1.2307 H         1 <0>         0.1269
     68 H30        -8.3388  -10.5812   -1.1265 H         1 <0>         0.1305
     69 H31       -10.2756  -10.9333    0.3488 H         1 <0>         0.1350
     70 H32       -11.1345   -9.0879    1.7296 H         1 <0>         0.1380
@<TRIPOS>BOND
     1    1    2 1
     2    1   39 1
     3    1   40 1
     4    1   41 1
     5    2    3 1
     6    2   42 1
     7    2   43 1
     8    3    4 1
     9    3   44 1
    10    3   45 1
    11    4    5 1
    12    5   10 ar
    13    5    6 ar
    14    6    7 ar
    15    6   46 1
    16    7    8 ar
    17    7   47 1
    18    8    9 ar
    19    8   11 1
    20    9   10 ar
    21    9   48 1
    22   10   49 1
    23   11   15 1
    24   11   12 2
    25   12   13 1
    26   12   50 1
    27   13   14 2
    28   13   51 1
    29   14   15 1
    30   14   32 1
    31   15   16 1
    32   16   17 1
    33   16   52 1
    34   16   53 1
    35   17   18 2
    36   17   19 1
    37   19   20 2
    38   20   21 1
    39   20   22 1
    40   21   54 1
    41   21   55 1
    42   22   23 1
    43   22   56 1
    44   23   28 1
    45   23   24 1
    46   23   57 1
    47   24   25 1
    48   24   58 1
    49   24   59 1
    50   25   26 1
    51   25   60 1
    52   25   61 1
    53   26   27 1
    54   26   29 1
    55   26   62 1
    56   27   28 1
    57   27   63 1
    58   27   64 1
    59   28   65 1
    60   28   66 1
    61   29   30 2
    62   29   31 1
    63   32   37 ar
    64   32   33 ar
    65   33   34 ar
    66   33   67 1
    67   34   35 ar
    68   34   68 1
    69   35   36 ar
    70   35   69 1
    71   36   37 ar
    72   36   70 1
    73   37   38 1
@<TRIPOS>MOLECULE
CHEMBL271914__1
   70    73     0     0     0
SMALL
USER_CHARGES

@<TRIPOS>ATOM
      1 C1          1.8945   -2.3321    1.9296 C.3       1 <0>        -0.1512
      2 C2          0.7617   -1.6066    1.2008 C.3       1 <0>        -0.1225
      3 C3         -0.4934   -2.4816    1.2099 C.3       1 <0>         0.0565
      4 O1         -1.5515   -1.8040    0.5292 O.3       1 <0>        -0.3159
      5 C4         -2.7447   -2.4489    0.4469 C.ar      1 <0>         0.1290
      6 C5         -2.8926   -3.7067    1.0163 C.ar      1 <0>        -0.1985
      7 C6         -4.1013   -4.3646    0.9347 C.ar      1 <0>        -0.0823
      8 C7         -5.1779   -3.7641    0.2788 C.ar      1 <0>        -0.0526
      9 C8         -5.0250   -2.4990   -0.2920 C.ar      1 <0>        -0.0609
     10 C9         -3.8144   -1.8458   -0.2014 C.ar      1 <0>        -0.1473
     11 C10        -6.4751   -4.4658    0.1884 C.2       1 <0>         0.0792
     12 C11        -7.6922   -3.8778    0.0004 C.2       1 <0>        -0.1788
     13 C12        -8.6544   -4.8935   -0.0255 C.2       1 <0>        -0.1534
     14 C13        -8.0059   -6.0816    0.1472 C.2       1 <0>         0.0530
     15 N1         -6.6644   -5.8215    0.2732 N.pl3     1 <0>        -0.4128
     16 C14        -5.6126   -6.8225    0.4685 C.3       1 <0>         0.0717
     17 C15        -5.4885   -7.1408    1.9363 C.2       1 <0>         0.4934
     18 O2         -6.2094   -6.5850    2.7418 O.2       1 <0>        -0.5170
     19 N2         -4.5893   -8.0309    2.3507 N.2       1 <0>        -0.7146
     20 C16        -4.9646   -9.0436    3.1217 C.2       1 <0>         0.7117
     21 N3         -6.2855   -9.2431    3.3890 N.pl3     1 <0>        -0.8586
     22 N4         -4.0291   -9.8838    3.6460 N.pl3     1 <0>        -0.6920
     23 C17        -4.4435  -11.0018    4.4972 C.3       1 <0>         0.1395
     24 C18        -4.6007  -10.5142    5.9389 C.3       1 <0>        -0.1342
     25 C19        -5.0335  -11.6818    6.8279 C.3       1 <0>        -0.0896
     26 C20        -3.9731  -12.7835    6.7749 C.3       1 <0>        -0.1573
     27 C21        -3.8159  -13.2711    5.3332 C.3       1 <0>        -0.0883
     28 C22        -3.3831  -12.1035    4.4442 C.3       1 <0>        -0.1216
     29 C23        -4.3993  -13.9336    7.6505 C.2       1 <0>         0.4941
     30 O3         -4.0572  -15.0704    7.3730 O.co2     1 <0>        -0.6994
     31 O4         -5.0863  -13.7271    8.6363 O.co2     1 <0>        -0.6987
     32 C24        -8.6377   -7.4166    0.1864 C.ar      1 <0>        -0.0070
     33 C25        -8.1417   -8.4509   -0.6096 C.ar      1 <0>        -0.1092
     34 C26        -8.7358   -9.6950   -0.5679 C.ar      1 <0>        -0.1114
     35 C27        -9.8217   -9.9199    0.2601 C.ar      1 <0>        -0.1060
     36 C28       -10.3190   -8.9004    1.0518 C.ar      1 <0>        -0.1092
     37 C29        -9.7305   -7.6515    1.0245 C.ar      1 <0>        -0.0179
     38 Cl1       -10.3511   -6.3749    2.0239 Cl        1 <0>        -0.0501
     39 H1          2.7886   -1.7088    1.9231 H         1 <0>         0.0644
     40 H2          1.5965   -2.5292    2.9594 H         1 <0>         0.0585
     41 H3          2.1055   -3.2753    1.4256 H         1 <0>         0.0583
     42 H4          0.5507   -0.6635    1.7048 H         1 <0>         0.0730
     43 H5          1.0597   -1.4095    0.1710 H         1 <0>         0.0729
     44 H6         -0.2824   -3.4248    0.7059 H         1 <0>         0.0630
     45 H7         -0.7914   -2.6787    2.2397 H         1 <0>         0.0630
     46 H8         -2.0595   -4.1704    1.5235 H         1 <0>         0.1294
     47 H9         -4.2153   -5.3432    1.3772 H         1 <0>         0.1272
     48 H10        -5.8550   -2.0312   -0.8006 H         1 <0>         0.1356
     49 H11        -3.6964   -0.8655   -0.6390 H         1 <0>         0.1337
     50 H12        -7.8791   -2.8196   -0.1085 H         1 <0>         0.1396
     51 H13        -9.7180   -4.7610   -0.1583 H         1 <0>         0.1379
     52 H14        -5.8678   -7.7294   -0.0796 H         1 <0>         0.1136
     53 H15        -4.6647   -6.4300    0.1005 H         1 <0>         0.1225
     54 H16        -6.9569   -8.6977    2.9502 H         1 <0>         0.4156
     55 H17        -6.5545   -9.9306    4.0182 H         1 <0>         0.4059
     56 H18        -3.0886   -9.7418    3.4557 H         1 <0>         0.4217
     57 H19        -5.3952  -11.3962    4.1412 H         1 <0>         0.0813
     58 H20        -3.6489  -10.1198    6.2949 H         1 <0>         0.0679
     59 H21        -5.3561   -9.7294    5.9766 H         1 <0>         0.0577
     60 H22        -5.1455  -11.3344    7.8549 H         1 <0>         0.0725
     61 H23        -5.9852  -12.0762    6.4719 H         1 <0>         0.0553
     62 H24        -3.0213  -12.3891    7.1308 H         1 <0>         0.0636
     63 H25        -3.0604  -14.0559    5.2954 H         1 <0>         0.0745
     64 H26        -4.7676  -13.6655    4.9772 H         1 <0>         0.0566
     65 H27        -3.2711  -12.4509    3.4171 H         1 <0>         0.0656
     66 H28        -2.4313  -11.7091    4.8002 H         1 <0>         0.0684
     67 H29        -7.2948   -8.2771   -1.2569 H         1 <0>         0.1283
     68 H30        -8.3529  -10.4956   -1.1833 H         1 <0>         0.1313
     69 H31       -10.2833  -10.8959    0.2880 H         1 <0>         0.1340
     70 H32       -11.1670   -9.0826    1.6954 H         1 <0>         0.1369
@<TRIPOS>BOND
     1    1    2 1
     2    1   39 1
     3    1   40 1
     4    1   41 1
     5    2    3 1
     6    2   42 1
     7    2   43 1
     8    3    4 1
     9    3   44 1
    10    3   45 1
    11    4    5 1
    12    5   10 ar
    13    5    6 ar
    14    6    7 ar
    15    6   46 1
    16    7    8 ar
    17    7   47 1
    18    8    9 ar
    19    8   11 1
    20    9   10 ar
    21    9   48 1
    22   10   49 1
    23   11   15 1
    24   11   12 2
    25   12   13 1
    26   12   50 1
    27   13   14 2
    28   13   51 1
    29   14   15 1
    30   14   32 1
    31   15   16 1
    32   16   17 1
    33   16   52 1
    34   16   53 1
    35   17   18 2
    36   17   19 1
    37   19   20 2
    38   20   21 1
    39   20   22 1
    40   21   54 1
    41   21   55 1
    42   22   23 1
    43   22   56 1
    44   23   28 1
    45   23   24 1
    46   23   57 1
    47   24   25 1
    48   24   58 1
    49   24   59 1
    50   25   26 1
    51   25   60 1
    52   25   61 1
    53   26   27 1
    54   26   29 1
    55   26   62 1
    56   27   28 1
    57   27   63 1
    58   27   64 1
    59   28   65 1
    60   28   66 1
    61   29   30 2
    62   29   31 1
    63   32   37 ar
    64   32   33 ar
    65   33   34 ar
    66   33   67 1
    67   34   35 ar
    68   34   68 1
    69   35   36 ar
    70   35   69 1
    71   36   37 ar
    72   36   70 1
    73   37   38 1
@<TRIPOS>MOLECULE
CHEMBL558078
   64    67     0     0     0
SMALL
USER_CHARGES

@<TRIPOS>ATOM
      1 C1         -0.0187    1.5258    0.0104 C.3       1 <0>        -0.1491
      2 C2          0.0021   -0.0041    0.0020 C.3       1 <0>        -0.0519
      3 C3          0.7309   -0.5033    1.2229 C.2       1 <0>        -0.1377
      4 C4          2.0340   -0.8365    1.2975 C.2       1 <0>         0.0635
      5 N1          2.3374   -1.2538    2.5623 N.pl3     1 <0>        -0.4967
      6 C5          1.2364   -1.0856    3.3673 C.ar      1 <0>         0.0781
      7 C6          0.1583   -0.7119    2.5541 C.ar      1 <0>        -0.0675
      8 C7         -1.1166   -0.6573    3.1146 C.ar      1 <0>         0.0177
      9 C8         -1.2745   -0.9317    4.4711 C.ar      1 <0>        -0.1474
     10 C9         -0.1671   -1.2162    5.2843 C.ar      1 <0>        -0.0512
     11 C10         1.0988   -1.2490    4.7358 C.ar      1 <0>         0.0682
     12 O1          2.1830   -1.2500    5.5643 O.3       1 <0>        -0.6578
     13 S1          3.1939   -0.1703    5.2195 S.o2      1 <0>         2.5946
     14 O2          3.9127    0.0332    6.4283 O.2       1 <0>        -0.9195
     15 O3          2.4091    0.8795    4.6705 O.2       1 <0>        -0.9336
     16 C11         4.3128   -0.8229    3.9465 C.3       1 <0>        -0.6756
     17 C12         3.5956   -1.8243    3.0504 C.3       1 <0>         0.1270
     18 C13        -2.6276   -0.9224    5.0622 C.2       1 <0>         0.5688
     19 O4         -3.5934   -0.6765    4.3659 O.2       1 <0>        -0.5054
     20 N2         -2.7919   -1.1864    6.3736 N.am      1 <0>        -0.7273
     21 C14        -4.1344   -1.1772    6.9600 C.3       1 <0>         0.1234
     22 H1         -4.7366   -0.4078    6.4769 H         1 <0>         0.1021
     23 C15        -4.7908   -2.5436    6.7528 C.3       1 <0>        -0.0879
     24 C16        -5.0009   -2.7817    5.2797 C.ar      1 <0>        -0.0656
     25 C17        -6.1763   -2.3773    4.6749 C.ar      1 <0>        -0.1071
     26 C18        -6.3691   -2.5957    3.3236 C.ar      1 <0>        -0.1129
     27 C19        -5.3862   -3.2182    2.5770 C.ar      1 <0>        -0.1207
     28 C20        -4.2105   -3.6218    3.1816 C.ar      1 <0>        -0.1128
     29 C21        -4.0160   -3.3995    4.5320 C.ar      1 <0>        -0.1094
     30 C22        -4.0346   -0.8812    8.4578 C.3       1 <0>         0.1047
     31 H2         -5.0334   -0.8743    8.8941 H         1 <0>         0.1148
     32 C23        -3.3781    0.4852    8.6650 C.3       1 <0>         0.0234
     33 N3         -3.2823    0.7694   10.1030 N.3       1 <0>        -0.6760
     34 C24        -2.6555    2.0765   10.3407 C.3       1 <0>         0.1670
     35 C25        -2.5765    2.3267   11.7892 C.1       1 <0>        -0.1937
     36 C26        -2.5135    2.5262   12.9444 C.1       1 <0>        -0.1851
     37 O5         -3.2450   -1.8899    9.0911 O.3       1 <0>        -0.5368
     38 H3          1.0039    1.9031    0.0027 H         1 <0>         0.0546
     39 H4         -0.5459    1.8868   -0.8726 H         1 <0>         0.0590
     40 H5         -0.5289    1.8773    0.9072 H         1 <0>         0.0575
     41 H6         -1.0205   -0.3814    0.0098 H         1 <0>         0.0762
     42 H7          0.5123   -0.3556   -0.8948 H         1 <0>         0.0742
     43 H8          2.7355   -0.7819    0.4781 H         1 <0>         0.1791
     44 H9         -1.9715   -0.4051    2.5047 H         1 <0>         0.1506
     45 H10        -0.3062   -1.4154    6.3366 H         1 <0>         0.1454
     46 H11         4.6821    0.0022    3.3374 H         1 <0>         0.1513
     47 H12         5.1565   -1.3153    4.4300 H         1 <0>         0.1601
     48 H13         3.3852   -2.7309    3.6178 H         1 <0>         0.1068
     49 H14         4.2336   -2.0714    2.2019 H         1 <0>         0.1241
     50 H15        -2.0213   -1.3825    6.9291 H         1 <0>         0.3936
     51 H16        -4.1448   -3.3223    7.1582 H         1 <0>         0.0822
     52 H17        -5.7526   -2.5661    7.2653 H         1 <0>         0.0828
     53 H18        -6.9442   -1.8910    5.2582 H         1 <0>         0.1139
     54 H19        -7.2877   -2.2804    2.8512 H         1 <0>         0.1156
     55 H20        -5.5371   -3.3895    1.5214 H         1 <0>         0.1147
     56 H21        -3.4427   -4.1085    2.5983 H         1 <0>         0.1129
     57 H22        -3.0958   -3.7115    5.0036 H         1 <0>         0.1090
     58 H23        -2.3793    0.4784    8.2287 H         1 <0>         0.0806
     59 H24        -3.9804    1.2546    8.1819 H         1 <0>         0.0463
     60 H25        -4.1889    0.7178   10.5430 H         1 <0>         0.3474
     61 H26        -1.6517    2.0807    9.9160 H         1 <0>         0.0954
     62 H27        -3.2528    2.8570    9.8693 H         1 <0>         0.0547
     63 H28        -2.4572    2.7047   13.9776 H         1 <0>         0.2186
     64 H29        -2.3417   -1.9530    8.7519 H         1 <0>         0.3687
@<TRIPOS>BOND
     1    1    2 1
     2    1   38 1
     3    1   39 1
     4    1   40 1
     5    2    3 1
     6    2   41 1
     7    2   42 1
     8    3    7 1
     9    3    4 2
    10    4    5 1
    11    4   43 1
    12    5   17 1
    13    5    6 1
    14    6   11 ar
    15    6    7 ar
    16    7    8 ar
    17    8    9 ar
    18    8   44 1
    19    9   10 ar
    20    9   18 1
    21   10   11 ar
    22   10   45 1
    23   11   12 1
    24   12   13 1
    25   13   14 2
    26   13   15 2
    27   13   16 1
    28   16   17 1
    29   16   46 1
    30   16   47 1
    31   17   48 1
    32   17   49 1
    33   18   19 2
    34   18   20 am
    35   20   21 1
    36   20   50 1
    37   21   22 1
    38   21   23 1
    39   21   30 1
    40   23   24 1
    41   23   51 1
    42   23   52 1
    43   24   29 ar
    44   24   25 ar
    45   25   26 ar
    46   25   53 1
    47   26   27 ar
    48   26   54 1
    49   27   28 ar
    50   27   55 1
    51   28   29 ar
    52   28   56 1
    53   29   57 1
    54   30   31 1
    55   30   32 1
    56   30   37 1
    57   32   33 1
    58   32   58 1
    59   32   59 1
    60   33   34 1
    61   33   60 1
    62   34   35 1
    63   34   61 1
    64   34   62 1
    65   35   36 3
    66   36   63 1
    67   37   64 1
@<TRIPOS>MOLECULE
CHEMBL558078__1
   65    68     0     0     0
SMALL
USER_CHARGES

@<TRIPOS>ATOM
      1 C1         -0.0187    1.5258    0.0104 C.3       1 <0>        -0.1490
      2 C2          0.0021   -0.0041    0.0020 C.3       1 <0>        -0.0540
      3 C3         -1.4117   -0.5257    0.0127 C.2       1 <0>        -0.1360
      4 C4         -2.1223   -0.8918    1.0970 C.2       1 <0>         0.0682
      5 N1         -3.3628   -1.3210    0.7190 N.pl3     1 <0>        -0.4938
      6 C5         -3.5123   -1.1280   -0.6334 C.ar      1 <0>         0.0788
      7 C6         -2.2752   -0.7245   -1.1528 C.ar      1 <0>        -0.0655
      8 C7         -2.1243   -0.6399   -2.5357 C.ar      1 <0>         0.0230
      9 C8         -3.2160   -0.9149   -3.3561 C.ar      1 <0>        -0.1579
     10 C9         -4.4692   -1.2301   -2.8096 C.ar      1 <0>        -0.0586
     11 C10        -4.6263   -1.2927   -1.4400 C.ar      1 <0>         0.0733
     12 O1         -5.8856   -1.3238   -0.9155 O.3       1 <0>        -0.6608
     13 S1         -6.1089   -0.2686    0.1538 S.o2      1 <0>         2.5951
     14 O2         -7.5182   -0.0874    0.1758 O.2       1 <0>        -0.9200
     15 O3         -5.2577    0.8024   -0.2303 O.2       1 <0>        -0.9355
     16 C11        -5.5555   -0.9446    1.7459 C.3       1 <0>        -0.6734
     17 C12        -4.4054   -1.9245    1.5529 C.3       1 <0>         0.1244
     18 C13        -3.0518   -0.8738   -4.8230 C.2       1 <0>         0.5730
     19 O4         -1.9700   -0.6013   -5.3062 O.2       1 <0>        -0.4919
     20 N2         -4.1013   -1.1382   -5.6262 N.am      1 <0>        -0.7417
     21 C14        -3.9385   -1.0973   -7.0816 C.3       1 <0>         0.1267
     22 H1         -3.2312   -0.3113   -7.3461 H         1 <0>         0.1151
     23 C15        -3.4097   -2.4461   -7.5736 C.3       1 <0>        -0.0854
     24 C16        -2.0252   -2.6737   -7.0238 C.ar      1 <0>        -0.0786
     25 C17        -0.9204   -2.2378   -7.7310 C.ar      1 <0>        -0.1056
     26 C18         0.3496   -2.4466   -7.2267 C.ar      1 <0>        -0.1109
     27 C19         0.5148   -3.0909   -6.0149 C.ar      1 <0>        -0.1126
     28 C20        -0.5901   -3.5261   -5.3072 C.ar      1 <0>        -0.1113
     29 C21        -1.8603   -3.3134   -5.8095 C.ar      1 <0>        -0.1088
     30 C22        -5.2901   -0.8091   -7.7381 C.3       1 <0>         0.0777
     31 H2         -5.1690   -0.7787   -8.8209 H         1 <0>         0.1437
     32 C23        -5.8189    0.5396   -7.2460 C.3       1 <0>        -0.0509
     33 N3         -7.1166    0.8163   -7.8763 N.4       1 <0>        -0.5049
     34 C24        -7.6243    2.1113   -7.4038 C.3       1 <0>         0.1320
     35 C25        -8.9247    2.3885   -8.0354 C.1       1 <0>        -0.3070
     36 C26        -9.9618    2.6096   -8.5392 C.1       1 <0>        -0.0463
     37 O5         -6.2175   -1.8396   -7.3913 O.3       1 <0>        -0.5438
     38 H3          1.0039    1.9031    0.0027 H         1 <0>         0.0614
     39 H4         -0.5459    1.8868   -0.8726 H         1 <0>         0.0557
     40 H5         -0.5289    1.8773    0.9072 H         1 <0>         0.0557
     41 H6          0.5123   -0.3556   -0.8948 H         1 <0>         0.0768
     42 H7          0.5293   -0.3651    0.8851 H         1 <0>         0.0773
     43 H8         -1.7640   -0.8519    2.1151 H         1 <0>         0.1827
     44 H9         -1.1729   -0.3642   -2.9660 H         1 <0>         0.1517
     45 H10        -5.3079   -1.4294   -3.4601 H         1 <0>         0.1397
     46 H11        -5.2253   -0.1270    2.3866 H         1 <0>         0.1540
     47 H12        -6.3881   -1.4598    2.2249 H         1 <0>         0.1629
     48 H13        -4.7775   -2.8276    1.0690 H         1 <0>         0.1084
     49 H14        -3.9855   -2.1846    2.5246 H         1 <0>         0.1280
     50 H15        -4.9645   -1.3555   -5.2407 H         1 <0>         0.3909
     51 H16        -4.0716   -3.2421   -7.2325 H         1 <0>         0.0846
     52 H17        -3.3726   -2.4462   -8.6630 H         1 <0>         0.0860
     53 H18        -1.0494   -1.7344   -8.6778 H         1 <0>         0.1143
     54 H19         1.2129   -2.1066   -7.7796 H         1 <0>         0.1193
     55 H20         1.5071   -3.2547   -5.6212 H         1 <0>         0.1191
     56 H21        -0.4611   -4.0298   -4.3607 H         1 <0>         0.1161
     57 H22        -2.7237   -3.6501   -5.2549 H         1 <0>         0.1089
     58 H23        -5.9400    0.5092   -6.1631 H         1 <0>         0.1385
     59 H24        -5.1115    1.3256   -7.5105 H         1 <0>         0.1518
     60 H25        -7.0045    0.8444   -8.8787 H         1 <0>         0.4328
     61 H26        -7.7454    2.0809   -6.3210 H         1 <0>         0.1496
     62 H27        -6.9169    2.8973   -7.6684 H         1 <0>         0.1508
     63 H28       -10.8894    2.8074   -8.9897 H         1 <0>         0.2369
     64 H29        -6.3742   -1.9241   -6.4408 H         1 <0>         0.3849
     65 H30        -7.7714    0.0887   -7.6314 H         1 <0>         0.4345
@<TRIPOS>BOND
     1    1    2 1
     2    1   38 1
     3    1   39 1
     4    1   40 1
     5    2    3 1
     6    2   41 1
     7    2   42 1
     8    3    7 1
     9    3    4 2
    10    4    5 1
    11    4   43 1
    12    5   17 1
    13    5    6 1
    14    6   11 ar
    15    6    7 ar
    16    7    8 ar
    17    8    9 ar
    18    8   44 1
    19    9   10 ar
    20    9   18 1
    21   10   11 ar
    22   10   45 1
    23   11   12 1
    24   12   13 1
    25   13   14 2
    26   13   15 2
    27   13   16 1
    28   16   17 1
    29   16   46 1
    30   16   47 1
    31   17   48 1
    32   17   49 1
    33   18   19 2
    34   18   20 am
    35   20   21 1
    36   20   50 1
    37   21   22 1
    38   21   23 1
    39   21   30 1
    40   23   24 1
    41   23   51 1
    42   23   52 1
    43   24   29 ar
    44   24   25 ar
    45   25   26 ar
    46   25   53 1
    47   26   27 ar
    48   26   54 1
    49   27   28 ar
    50   27   55 1
    51   28   29 ar
    52   28   56 1
    53   29   57 1
    54   30   31 1
    55   30   32 1
    56   30   37 1
    57   32   33 1
    58   32   58 1
    59   32   59 1
    60   33   34 1
    61   33   60 1
    62   33   65 1
    63   34   35 1
    64   34   61 1
    65   34   62 1
    66   35   36 3
    67   36   63 1
    68   37   64 1
@<TRIPOS>MOLECULE
CHEMBL379820
   75    79     0     0     0
SMALL
USER_CHARGES

@<TRIPOS>ATOM
      1 C1         -0.0523    1.3535    0.0265 C.ar      1 <0>        -0.1048
      2 C2          1.1291    2.0723   -0.0065 C.ar      1 <0>        -0.1189
      3 C3          2.3408    1.4123   -0.0353 C.ar      1 <0>        -0.1038
      4 C4          2.3727    0.0191   -0.0310 C.ar      1 <0>        -0.0677
      5 C5          1.1794   -0.7000    0.0023 C.ar      1 <0>        -0.0995
      6 C6         -0.0266   -0.0295    0.0309 C.ar      1 <0>        -0.1169
      7 C7          3.6721   -0.6959   -0.0623 C.ar      1 <0>         0.0017
      8 C8          4.8646    0.0254   -0.0903 C.ar      1 <0>        -0.1215
      9 C9          6.0738   -0.6384   -0.1194 C.ar      1 <0>        -0.0947
     10 C10         6.1068   -2.0262   -0.1205 C.ar      1 <0>         0.1056
     11 C11         4.9158   -2.7535   -0.0926 C.ar      1 <0>         0.1581
     12 C12         3.7016   -2.0892   -0.0580 C.ar      1 <0>        -0.1105
     13 N1          4.9491   -4.1539   -0.0942 N.am      1 <0>        -0.6661
     14 C13         4.0235   -4.8508    0.5943 C.2       1 <0>         0.5643
     15 O1          3.1134   -4.2674    1.1517 O.2       1 <0>        -0.5009
     16 C14         4.1141   -6.3202    0.6717 C.ar      1 <0>        -0.1323
     17 C15         5.2116   -6.9843    0.1433 C.ar      1 <0>        -0.0718
     18 C16         5.3025   -8.3686    0.2127 C.ar      1 <0>        -0.1420
     19 C17         4.3218   -9.1116    0.7989 C.ar      1 <0>        -0.0576
     20 C18         3.1919   -8.4811    1.3480 C.ar      1 <0>        -0.0610
     21 C19         3.0837   -7.0703    1.2922 C.ar      1 <0>        -0.0093
     22 C20         1.9592   -6.4425    1.8445 C.ar      1 <0>        -0.1249
     23 C21         0.9874   -7.1947    2.4331 C.ar      1 <0>        -0.1015
     24 C22         1.0948   -8.5821    2.4949 C.ar      1 <0>        -0.1070
     25 C23         2.1671   -9.2260    1.9572 C.ar      1 <0>        -0.1074
     26 N2          7.3335   -2.6956   -0.1500 N.pl3     1 <0>        -0.6692
     27 C24         7.9700   -3.0522   -1.4274 C.3       1 <0>         0.1131
     28 C25         9.4237   -2.5688   -1.3973 C.3       1 <0>        -0.0220
     29 N3         10.0959   -3.1155   -0.2118 N.4       1 <0>        -0.3809
     30 C26         9.4759   -2.5792    1.0064 C.3       1 <0>        -0.0262
     31 C27         8.0275   -3.0581    1.0953 C.3       1 <0>         0.1187
     32 C28        11.5165   -2.7427   -0.2410 C.3       1 <0>        -0.0107
     33 C29        12.2441   -3.4142    0.9254 C.3       1 <0>        -0.1508
     34 C30        13.7237   -3.0260    0.8950 C.3       1 <0>        -0.1166
     35 C31        14.4512   -3.6975    2.0614 C.3       1 <0>        -0.1541
     36 C32        15.9308   -3.3092    2.0310 C.3       1 <0>        -0.0099
     37 N4         16.6294   -3.9540    3.1509 N.4       1 <0>        -0.6394
     38 H1         -0.9982    1.8741    0.0534 H         1 <0>         0.1282
     39 H2          1.1031    3.1520   -0.0102 H         1 <0>         0.1283
     40 H3          3.2626    1.9745   -0.0614 H         1 <0>         0.1247
     41 H4          1.1983   -1.7798    0.0054 H         1 <0>         0.1264
     42 H5         -0.9520   -0.5857    0.0571 H         1 <0>         0.1286
     43 H6          4.8420    1.1052   -0.0895 H         1 <0>         0.1333
     44 H7          6.9963   -0.0772   -0.1418 H         1 <0>         0.1245
     45 H8          2.7788   -2.6497   -0.0322 H         1 <0>         0.1510
     46 H9          5.6384   -4.6220   -0.5908 H         1 <0>         0.4059
     47 H10         6.0029   -6.4194   -0.3271 H         1 <0>         0.1166
     48 H11         6.1657   -8.8650   -0.2055 H         1 <0>         0.1301
     49 H12         4.4128  -10.1869    0.8412 H         1 <0>         0.1360
     50 H13         1.8634   -5.3675    1.8041 H         1 <0>         0.1671
     51 H14         0.1217   -6.7083    2.8579 H         1 <0>         0.1295
     52 H15         0.3114   -9.1561    2.9675 H         1 <0>         0.1302
     53 H16         2.2368  -10.3024    2.0109 H         1 <0>         0.1335
     54 H17         7.9464   -4.1339   -1.5591 H         1 <0>         0.0767
     55 H18         7.4402   -2.5687   -2.2482 H         1 <0>         0.1215
     56 H19         9.9384   -2.9086   -2.2960 H         1 <0>         0.1377
     57 H20         9.4438   -1.4797   -1.3566 H         1 <0>         0.1332
     58 H21        10.0291   -2.9268    1.8790 H         1 <0>         0.1337
     59 H22         9.4944   -1.4899    0.9744 H         1 <0>         0.1325
     60 H23         7.5357   -2.5786    1.9417 H         1 <0>         0.1181
     61 H24         8.0098   -4.1405    1.2228 H         1 <0>         0.0756
     62 H25        11.9587   -3.0701   -1.1820 H         1 <0>         0.1328
     63 H26        11.6100   -1.6603   -0.1528 H         1 <0>         0.1309
     64 H27        11.8018   -3.0869    1.8663 H         1 <0>         0.0914
     65 H28        12.1506   -4.4966    0.8372 H         1 <0>         0.0912
     66 H29        14.1659   -3.3533   -0.0459 H         1 <0>         0.0869
     67 H30        13.8171   -1.9436    0.9832 H         1 <0>         0.0865
     68 H31        14.0090   -3.3701    3.0023 H         1 <0>         0.0920
     69 H32        14.3577   -4.7799    1.9732 H         1 <0>         0.0923
     70 H33        16.3731   -3.6366    1.0901 H         1 <0>         0.1360
     71 H34        16.0243   -2.2268    2.1192 H         1 <0>         0.1359
     72 H35        16.2200   -3.6509    4.0219 H         1 <0>         0.4371
     73 H36        16.5429   -4.9559    3.0692 H         1 <0>         0.4371
     74 H37        17.6052   -3.6979    3.1309 H         1 <0>         0.4439
     75 H38        10.0145   -4.1212   -0.2144 H         1 <0>         0.4214
@<TRIPOS>BOND
     1    1    6 ar
     2    1    2 ar
     3    1   38 1
     4    2    3 ar
     5    2   39 1
     6    3    4 ar
     7    3   40 1
     8    4    5 ar
     9    4    7 1
    10    5    6 ar
    11    5   41 1
    12    6   42 1
    13    7   12 ar
    14    7    8 ar
    15    8    9 ar
    16    8   43 1
    17    9   10 ar
    18    9   44 1
    19   10   11 ar
    20   10   26 1
    21   11   12 ar
    22   11   13 1
    23   12   45 1
    24   13   14 am
    25   13   46 1
    26   14   15 2
    27   14   16 1
    28   16   21 ar
    29   16   17 ar
    30   17   18 ar
    31   17   47 1
    32   18   19 ar
    33   18   48 1
    34   19   20 ar
    35   19   49 1
    36   20   25 ar
    37   20   21 ar
    38   21   22 ar
    39   22   23 ar
    40   22   50 1
    41   23   24 ar
    42   23   51 1
    43   24   25 ar
    44   24   52 1
    45   25   53 1
    46   26   31 1
    47   26   27 1
    48   27   28 1
    49   27   54 1
    50   27   55 1
    51   28   29 1
    52   28   56 1
    53   28   57 1
    54   29   30 1
    55   29   32 1
    56   29   75 1
    57   30   31 1
    58   30   58 1
    59   30   59 1
    60   31   60 1
    61   31   61 1
    62   32   33 1
    63   32   62 1
    64   32   63 1
    65   33   34 1
    66   33   64 1
    67   33   65 1
    68   34   35 1
    69   34   66 1
    70   34   67 1
    71   35   36 1
    72   35   68 1
    73   35   69 1
    74   36   37 1
    75   36   70 1
    76   36   71 1
    77   37   72 1
    78   37   73 1
    79   37   74 1
@<TRIPOS>MOLECULE
CHEMBL379820__1
   74    78     0     0     0
SMALL
USER_CHARGES

@<TRIPOS>ATOM
      1 C1         -0.0523    1.3535    0.0265 C.ar      1 <0>        -0.1151
      2 C2          1.1291    2.0723   -0.0065 C.ar      1 <0>        -0.1192
      3 C3          2.3408    1.4123   -0.0353 C.ar      1 <0>        -0.1091
      4 C4          2.3727    0.0191   -0.0310 C.ar      1 <0>        -0.0501
      5 C5          1.1794   -0.7000    0.0023 C.ar      1 <0>        -0.1046
      6 C6         -0.0266   -0.0295    0.0309 C.ar      1 <0>        -0.1174
      7 C7          3.6721   -0.6959   -0.0623 C.ar      1 <0>        -0.0247
      8 C8          4.8646    0.0254   -0.0903 C.ar      1 <0>        -0.1180
      9 C9          6.0738   -0.6384   -0.1194 C.ar      1 <0>        -0.1036
     10 C10         6.1068   -2.0262   -0.1205 C.ar      1 <0>         0.1421
     11 C11         4.9158   -2.7535   -0.0926 C.ar      1 <0>         0.1435
     12 C12         3.7016   -2.0892   -0.0580 C.ar      1 <0>        -0.1066
     13 N1          4.9491   -4.1539   -0.0942 N.am      1 <0>        -0.6585
     14 C13         4.0235   -4.8508    0.5943 C.2       1 <0>         0.5641
     15 O1          3.1134   -4.2674    1.1517 O.2       1 <0>        -0.5114
     16 C14         4.1141   -6.3202    0.6717 C.ar      1 <0>        -0.1291
     17 C15         5.2116   -6.9843    0.1433 C.ar      1 <0>        -0.0684
     18 C16         5.3025   -8.3686    0.2127 C.ar      1 <0>        -0.1343
     19 C17         4.3218   -9.1116    0.7989 C.ar      1 <0>        -0.0666
     20 C18         3.1919   -8.4811    1.3480 C.ar      1 <0>        -0.0613
     21 C19         3.0837   -7.0703    1.2922 C.ar      1 <0>        -0.0100
     22 C20         1.9592   -6.4425    1.8445 C.ar      1 <0>        -0.1195
     23 C21         0.9874   -7.1947    2.4331 C.ar      1 <0>        -0.1096
     24 C22         1.0948   -8.5821    2.4949 C.ar      1 <0>        -0.1109
     25 C23         2.1671   -9.2260    1.9572 C.ar      1 <0>        -0.1095
     26 N2          7.3335   -2.6956   -0.1500 N.pl3     1 <0>        -0.6751
     27 C24         7.9687   -3.0515   -1.4280 C.3       1 <0>         0.1453
     28 C25         9.4172   -2.5520   -1.4073 C.3       1 <0>         0.0414
     29 N3         10.0939   -3.0713   -0.2114 N.3       1 <0>        -0.5347
     30 C26         9.4696   -2.5628    1.0172 C.3       1 <0>         0.0389
     31 C27         8.0262   -3.0574    1.0959 C.3       1 <0>         0.1509
     32 C28        11.5290   -2.7587   -0.2411 C.3       1 <0>         0.0539
     33 C29        12.2401   -3.5201    0.8794 C.3       1 <0>        -0.1176
     34 C30        13.7347   -3.1945    0.8486 C.3       1 <0>        -0.1180
     35 C31        14.4458   -3.9559    1.9691 C.3       1 <0>        -0.1513
     36 C32        15.9404   -3.6303    1.9382 C.3       1 <0>        -0.0101
     37 N4         16.6231   -4.3613    3.0141 N.4       1 <0>        -0.6386
     38 H1         -0.9982    1.8741    0.0534 H         1 <0>         0.1239
     39 H2          1.1031    3.1520   -0.0102 H         1 <0>         0.1249
     40 H3          3.2626    1.9745   -0.0614 H         1 <0>         0.1245
     41 H4          1.1983   -1.7798    0.0054 H         1 <0>         0.1264
     42 H5         -0.9520   -0.5857    0.0571 H         1 <0>         0.1252
     43 H6          4.8420    1.1052   -0.0895 H         1 <0>         0.1277
     44 H7          6.9963   -0.0772   -0.1418 H         1 <0>         0.1240
     45 H8          2.7788   -2.6497   -0.0322 H         1 <0>         0.1467
     46 H9          5.6384   -4.6220   -0.5908 H         1 <0>         0.4102
     47 H10         6.0029   -6.4194   -0.3271 H         1 <0>         0.1242
     48 H11         6.1657   -8.8650   -0.2055 H         1 <0>         0.1311
     49 H12         4.4128  -10.1869    0.8412 H         1 <0>         0.1335
     50 H13         1.8634   -5.3675    1.8041 H         1 <0>         0.1682
     51 H14         0.1217   -6.7083    2.8579 H         1 <0>         0.1263
     52 H15         0.3114   -9.1561    2.9675 H         1 <0>         0.1262
     53 H16         2.2368  -10.3024    2.0109 H         1 <0>         0.1303
     54 H17         7.9565   -4.1341   -1.5539 H         1 <0>         0.0571
     55 H18         7.4299   -2.5784   -2.2489 H         1 <0>         0.0765
     56 H19         9.9356   -2.9026   -2.2998 H         1 <0>         0.0812
     57 H20         9.4258   -1.4622   -1.3857 H         1 <0>         0.0383
     58 H21        10.0261   -2.9214    1.8832 H         1 <0>         0.0790
     59 H22         9.4776   -1.4729    1.0051 H         1 <0>         0.0363
     60 H23         7.5254   -2.5883    1.9428 H         1 <0>         0.0727
     61 H24         8.0196   -4.1406    1.2172 H         1 <0>         0.0556
     62 H25        11.9457   -3.0557   -1.2035 H         1 <0>         0.0759
     63 H26        11.6704   -1.6873   -0.0989 H         1 <0>         0.0335
     64 H27        11.8233   -3.2231    1.8418 H         1 <0>         0.0666
     65 H28        12.0986   -4.5915    0.7373 H         1 <0>         0.0758
     66 H29        14.1514   -3.4915   -0.1138 H         1 <0>         0.0756
     67 H30        13.8761   -2.1231    0.9907 H         1 <0>         0.0729
     68 H31        14.0290   -3.6589    2.9315 H         1 <0>         0.0873
     69 H32        14.3043   -5.0273    1.8270 H         1 <0>         0.0889
     70 H33        16.3572   -3.9273    0.9758 H         1 <0>         0.1339
     71 H34        16.0819   -2.5589    2.0804 H         1 <0>         0.1332
     72 H35        17.6088   -4.1466    2.9937 H         1 <0>         0.4386
     73 H36        16.2373   -4.0864    3.9049 H         1 <0>         0.4354
     74 H37        16.4922   -5.3531    2.8825 H         1 <0>         0.4356
@<TRIPOS>BOND
     1    1    6 ar
     2    1    2 ar
     3    1   38 1
     4    2    3 ar
     5    2   39 1
     6    3    4 ar
     7    3   40 1
     8    4    5 ar
     9    4    7 1
    10    5    6 ar
    11    5   41 1
    12    6   42 1
    13    7   12 ar
    14    7    8 ar
    15    8    9 ar
    16    8   43 1
    17    9   10 ar
    18    9   44 1
    19   10   11 ar
    20   10   26 1
    21   11   12 ar
    22   11   13 1
    23   12   45 1
    24   13   14 am
    25   13   46 1
    26   14   15 2
    27   14   16 1
    28   16   21 ar
    29   16   17 ar
    30   17   18 ar
    31   17   47 1
    32   18   19 ar
    33   18   48 1
    34   19   20 ar
    35   19   49 1
    36   20   25 ar
    37   20   21 ar
    38   21   22 ar
    39   22   23 ar
    40   22   50 1
    41   23   24 ar
    42   23   51 1
    43   24   25 ar
    44   24   52 1
    45   25   53 1
    46   26   31 1
    47   26   27 1
    48   27   28 1
    49   27   54 1
    50   27   55 1
    51   28   29 1
    52   28   56 1
    53   28   57 1
    54   29   30 1
    55   29   32 1
    56   30   31 1
    57   30   58 1
    58   30   59 1
    59   31   60 1
    60   31   61 1
    61   32   33 1
    62   32   62 1
    63   32   63 1
    64   33   34 1
    65   33   64 1
    66   33   65 1
    67   34   35 1
    68   34   66 1
    69   34   67 1
    70   35   36 1
    71   35   68 1
    72   35   69 1
    73   36   37 1
    74   36   70 1
    75   36   71 1
    76   37   72 1
    77   37   73 1
    78   37   74 1
@<TRIPOS>MOLECULE
CHEMBL445734
   77    80     0     0     0
SMALL
USER_CHARGES

@<TRIPOS>ATOM
      1 C1         -0.0187    1.5258    0.0104 C.3       1 <0>        -0.1685
      2 C2          0.0021   -0.0041    0.0020 C.3       1 <0>         0.1194
      3 N1          0.6878   -0.4765   -1.2033 N.pl3     1 <0>        -0.7429
      4 C3          0.8321   -1.8483   -1.4334 C.ar      1 <0>         0.2118
      5 C4          0.3209   -2.7597   -0.5232 C.ar      1 <0>        -0.1403
      6 C5          0.4645   -4.1294   -0.7531 C.ar      1 <0>        -0.1240
      7 C6          1.1238   -4.5753   -1.9012 C.ar      1 <0>         0.1137
      8 C7          1.6331   -3.6543   -2.8082 C.ar      1 <0>         0.1541
      9 C8          1.4826   -2.2949   -2.5769 C.ar      1 <0>        -0.1292
     10 N2          2.2949   -4.0990   -3.9597 N.am      1 <0>        -0.5843
     11 C9          1.6348   -4.3663   -5.2430 C.3       1 <0>         0.1039
     12 C10         2.7693   -4.3986   -6.2911 C.3       1 <0>        -0.1309
     13 C11         3.9878   -4.7932   -5.4248 C.3       1 <0>        -0.1526
     14 C12         3.6170   -4.3303   -4.0331 C.2       1 <0>         0.5236
     15 O1          4.3986   -4.1908   -3.1162 O.2       1 <0>        -0.5141
     16 F1          1.2662   -5.8993   -2.1288 F         1 <0>        -0.1106
     17 C13        -0.0786   -5.1041    0.2150 C.2       1 <0>         0.5653
     18 O2          0.0475   -6.2962    0.0129 O.2       1 <0>        -0.4873
     19 N3         -0.7139   -4.6717    1.3222 N.am      1 <0>        -0.7238
     20 C14        -1.2525   -5.6383    2.2822 C.3       1 <0>         0.1280
     21 H1         -1.6186   -6.5153    1.7483 H         1 <0>         0.1106
     22 C15        -0.1500   -6.0579    3.2566 C.3       1 <0>        -0.1009
     23 C16         0.9276   -6.7984    2.5072 C.ar      1 <0>        -0.0815
     24 C17         0.8484   -8.1705    2.3593 C.ar      1 <0>        -0.1075
     25 C18         1.8369   -8.8498    1.6719 C.ar      1 <0>        -0.1107
     26 C19         2.9042   -8.1568    1.1320 C.ar      1 <0>        -0.1075
     27 C20         2.9829   -6.7846    1.2792 C.ar      1 <0>        -0.1054
     28 C21         1.9923   -6.1048    1.9629 C.ar      1 <0>        -0.1059
     29 C22        -2.4036   -4.9974    3.0600 C.3       1 <0>         0.0751
     30 H2         -3.1486   -4.6187    2.3601 H         1 <0>         0.1342
     31 C23        -3.0468   -6.0431    3.9731 C.3       1 <0>        -0.0480
     32 N4         -4.2251   -5.4614    4.6297 N.4       1 <0>        -0.5050
     33 C24        -4.8426   -6.4654    5.5064 C.3       1 <0>         0.0464
     34 C25        -6.0515   -5.8687    6.1800 C.ar      1 <0>        -0.1683
     35 C26        -5.9170   -5.2207    7.3939 C.ar      1 <0>        -0.0602
     36 C27        -7.0256   -4.6735    8.0117 C.ar      1 <0>        -0.1108
     37 C28        -8.2690   -4.7736    7.4156 C.ar      1 <0>        -0.0360
     38 C29        -8.4034   -5.4206    6.2017 C.ar      1 <0>        -0.1746
     39 C30        -7.2937   -5.9643    5.5816 C.ar      1 <0>        -0.0437
     40 C31        -9.7588   -5.5301    5.5521 C.3       1 <0>         0.5061
     41 F2        -10.7151   -4.9065    6.3606 F         1 <0>        -0.1689
     42 F3         -9.7279   -4.9061    4.3004 F         1 <0>        -0.1729
     43 F4        -10.0916   -6.8796    5.3924 F         1 <0>        -0.1701
     44 O3         -1.9015   -3.9185    3.8511 O.3       1 <0>        -0.5497
     45 H3          1.0039    1.9031    0.0027 H         1 <0>         0.0651
     46 H4         -0.5459    1.8868   -0.8726 H         1 <0>         0.0645
     47 H5         -0.5289    1.8773    0.9072 H         1 <0>         0.0758
     48 H6          0.5293   -0.3651    0.8851 H         1 <0>         0.0607
     49 H7         -1.0205   -0.3814    0.0098 H         1 <0>         0.0598
     50 H8          1.0417    0.1622   -1.8418 H         1 <0>         0.4058
     51 H9         -0.1878   -2.4108    0.3634 H         1 <0>         0.1340
     52 H10         1.8756   -1.5814   -3.2860 H         1 <0>         0.1400
     53 H11         1.1235   -5.3284   -5.2110 H         1 <0>         0.0784
     54 H12         0.9279   -3.5702   -5.4766 H         1 <0>         0.0838
     55 H13         2.5735   -5.1512   -7.0548 H         1 <0>         0.0979
     56 H14         2.9124   -3.4162   -6.7413 H         1 <0>         0.0869
     57 H15         4.1366   -5.8728   -5.4449 H         1 <0>         0.1110
     58 H16         4.8839   -4.2771   -5.7693 H         1 <0>         0.1086
     59 H17        -0.8145   -3.7205    1.4833 H         1 <0>         0.4047
     60 H18         0.2772   -5.1714    3.7255 H         1 <0>         0.0817
     61 H19        -0.5710   -6.7076    4.0238 H         1 <0>         0.0794
     62 H20         0.0145   -8.7119    2.7811 H         1 <0>         0.1115
     63 H21         1.7754   -9.9219    1.5569 H         1 <0>         0.1193
     64 H22         3.6769   -8.6876    0.5956 H         1 <0>         0.1197
     65 H23         3.8170   -6.2432    0.8577 H         1 <0>         0.1177
     66 H24         2.0519   -5.0323    2.0746 H         1 <0>         0.1092
     67 H25        -3.3502   -6.9059    3.3801 H         1 <0>         0.1498
     68 H26        -2.3273   -6.3568    4.7294 H         1 <0>         0.1439
     69 H27        -3.9443   -4.6627    5.1786 H         1 <0>         0.4327
     70 H28        -5.1460   -7.3282    4.9134 H         1 <0>         0.1435
     71 H29        -4.1231   -6.7792    6.2627 H         1 <0>         0.1447
     72 H30        -4.9456   -5.1425    7.8596 H         1 <0>         0.1437
     73 H31        -6.9206   -4.1679    8.9603 H         1 <0>         0.1511
     74 H32        -9.1355   -4.3466    7.8987 H         1 <0>         0.1530
     75 H33        -7.3980   -6.4665    4.6312 H         1 <0>         0.1441
     76 H34        -1.2327   -4.1828    4.4976 H         1 <0>         0.3920
     77 H35        -4.8912   -5.1710    3.9296 H         1 <0>         0.4295
@<TRIPOS>BOND
     1    1    2 1
     2    1   45 1
     3    1   46 1
     4    1   47 1
     5    2    3 1
     6    2   48 1
     7    2   49 1
     8    3    4 1
     9    3   50 1
    10    4    9 ar
    11    4    5 ar
    12    5    6 ar
    13    5   51 1
    14    6    7 ar
    15    6   17 1
    16    7    8 ar
    17    7   16 1
    18    8    9 ar
    19    8   10 1
    20    9   52 1
    21   10   14 am
    22   10   11 1
    23   11   12 1
    24   11   53 1
    25   11   54 1
    26   12   13 1
    27   12   55 1
    28   12   56 1
    29   13   14 1
    30   13   57 1
    31   13   58 1
    32   14   15 2
    33   17   18 2
    34   17   19 am
    35   19   20 1
    36   19   59 1
    37   20   21 1
    38   20   22 1
    39   20   29 1
    40   22   23 1
    41   22   60 1
    42   22   61 1
    43   23   28 ar
    44   23   24 ar
    45   24   25 ar
    46   24   62 1
    47   25   26 ar
    48   25   63 1
    49   26   27 ar
    50   26   64 1
    51   27   28 ar
    52   27   65 1
    53   28   66 1
    54   29   30 1
    55   29   31 1
    56   29   44 1
    57   31   32 1
    58   31   67 1
    59   31   68 1
    60   32   33 1
    61   32   69 1
    62   32   77 1
    63   33   34 1
    64   33   70 1
    65   33   71 1
    66   34   39 ar
    67   34   35 ar
    68   35   36 ar
    69   35   72 1
    70   36   37 ar
    71   36   73 1
    72   37   38 ar
    73   37   74 1
    74   38   39 ar
    75   38   40 1
    76   39   75 1
    77   40   41 1
    78   40   42 1
    79   40   43 1
    80   44   76 1
@<TRIPOS>MOLECULE
CHEMBL566810
   71    73     0     0     0
SMALL
USER_CHARGES

@<TRIPOS>ATOM
      1 C1         -6.3616   -4.2564    4.6480 C.3       1 <0>        -0.1831
      2 C2         -5.0691   -3.5891    4.2537 C.2       1 <0>         0.5105
      3 O1         -4.0687   -4.2547    4.0893 O.2       1 <0>        -0.5307
      4 N1         -5.0251   -2.2529    4.0838 N.am      1 <0>        -0.7329
      5 C3         -3.7687   -1.6042    3.7005 C.3       1 <0>         0.1328
      6 H1         -3.9271   -0.5295    3.6111 H         1 <0>         0.1065
      7 C4         -2.7077   -1.8762    4.7688 C.3       1 <0>        -0.0991
      8 C5         -3.1170   -1.2195    6.0619 C.ar      1 <0>        -0.0286
      9 C6         -2.7293    0.0798    6.3295 C.ar      1 <0>        -0.1646
     10 C7         -3.1045    0.6841    7.5176 C.ar      1 <0>         0.1398
     11 C8         -3.8685   -0.0135    8.4372 C.ar      1 <0>        -0.1922
     12 C9         -4.2566   -1.3146    8.1679 C.ar      1 <0>         0.1392
     13 C10        -3.8847   -1.9150    6.9769 C.ar      1 <0>        -0.1581
     14 F1         -5.0024   -1.9966    9.0645 F         1 <0>        -0.1257
     15 F2         -2.7246    1.9539    7.7794 F         1 <0>        -0.1255
     16 C11        -3.2951   -2.1634    2.3574 C.3       1 <0>         0.0675
     17 H2         -3.1366   -3.2382    2.4468 H         1 <0>         0.1459
     18 C12        -4.3561   -1.8915    1.2891 C.3       1 <0>        -0.0577
     19 N2         -3.9570   -2.5317    0.0286 N.4       1 <0>        -0.4999
     20 C13        -4.9314   -2.1993   -1.0193 C.3       1 <0>         0.1013
     21 C14        -6.3204   -2.7026   -0.6087 C.3       1 <0>        -0.1383
     22 C15        -6.2078   -4.1829   -0.2357 C.3       1 <0>        -0.1578
     23 C16        -5.4620   -4.9246   -1.3075 C.2       1 <0>         0.4987
     24 O2         -5.5585   -6.1330   -1.3426 O.2       1 <0>        -0.5071
     25 N3         -4.6996   -4.3255   -2.2230 N.am      1 <0>        -0.7326
     26 C17        -4.5304   -2.8816   -2.3278 C.3       1 <0>         0.1009
     27 C18        -4.9696   -0.7060   -1.2189 C.ar      1 <0>        -0.1264
     28 C19        -3.8583    0.0601   -0.9197 C.ar      1 <0>        -0.1370
     29 C20        -3.8934    1.4296   -1.1026 C.ar      1 <0>        -0.0939
     30 C21        -5.0397    2.0334   -1.5853 C.ar      1 <0>        -0.0929
     31 C22        -6.1503    1.2674   -1.8853 C.ar      1 <0>        -0.0438
     32 C23        -6.1138   -0.1030   -1.7063 C.ar      1 <0>        -0.0840
     33 C24        -7.3999    1.9257   -2.4109 C.3       1 <0>        -0.0353
     34 C25        -7.1749    3.4352   -2.5178 C.3       1 <0>        -0.1519
     35 C26        -7.7312    1.3602   -3.7935 C.3       1 <0>        -0.1431
     36 C27        -8.5624    1.6497   -1.4552 C.3       1 <0>        -0.1414
     37 O3         -2.0695   -1.5308    1.9835 O.3       1 <0>        -0.5410
     38 H3         -6.4316   -4.2991    5.7350 H         1 <0>         0.1031
     39 H4         -7.2011   -3.6849    4.2521 H         1 <0>         0.0839
     40 H5         -6.3869   -5.2677    4.2423 H         1 <0>         0.1008
     41 H6         -5.8253   -1.7206    4.2153 H         1 <0>         0.4121
     42 H7         -2.6129   -2.9513    4.9214 H         1 <0>         0.1086
     43 H8         -1.7505   -1.4698    4.4420 H         1 <0>         0.1018
     44 H9         -2.1332    0.6239    5.6119 H         1 <0>         0.1430
     45 H10        -4.1613    0.4569    9.3643 H         1 <0>         0.1524
     46 H11        -4.1911   -2.9287    6.7646 H         1 <0>         0.1360
     47 H12        -5.3132   -2.2979    1.6159 H         1 <0>         0.1422
     48 H13        -4.4508   -0.8164    1.1365 H         1 <0>         0.1466
     49 H14        -3.0441   -2.1990   -0.2433 H         1 <0>         0.4317
     50 H15        -6.6778   -2.1340    0.2499 H         1 <0>         0.1095
     51 H16        -7.0141   -2.5857   -1.4413 H         1 <0>         0.1241
     52 H17        -5.6736   -4.2785    0.7096 H         1 <0>         0.0999
     53 H18        -7.2065   -4.6066   -0.1301 H         1 <0>         0.1372
     54 H19        -4.2277   -4.8858   -2.8589 H         1 <0>         0.4198
     55 H20        -5.1551   -2.5038   -3.1373 H         1 <0>         0.1177
     56 H21        -3.4868   -2.6559   -2.5468 H         1 <0>         0.1065
     57 H22        -2.9629   -0.4116   -0.5426 H         1 <0>         0.1183
     58 H23        -3.0255    2.0281   -0.8682 H         1 <0>         0.1381
     59 H24        -5.0673    3.1036   -1.7276 H         1 <0>         0.1415
     60 H25        -6.9804   -0.7020   -1.9442 H         1 <0>         0.1351
     61 H26        -6.3467    3.6318   -3.1988 H         1 <0>         0.0621
     62 H27        -8.0787    3.9113   -2.8981 H         1 <0>         0.0679
     63 H28        -6.9389    3.8380   -1.5329 H         1 <0>         0.0614
     64 H29        -7.8915    0.2848   -3.7173 H         1 <0>         0.0559
     65 H30        -8.6350    1.8363   -4.1737 H         1 <0>         0.0682
     66 H31        -6.9030    1.5568   -4.4744 H         1 <0>         0.0600
     67 H32        -8.3264    2.0526   -0.4702 H         1 <0>         0.0586
     68 H33        -9.4662    2.1258   -1.8354 H         1 <0>         0.0681
     69 H34        -8.7227    0.5743   -1.3790 H         1 <0>         0.0557
     70 H35        -2.1363   -0.5711    1.8854 H         1 <0>         0.3867
     71 H36        -3.9266   -3.5323    0.1544 H         1 <0>         0.4272
@<TRIPOS>BOND
     1    1    2 1
     2    1   38 1
     3    1   39 1
     4    1   40 1
     5    2    3 2
     6    2    4 am
     7    4    5 1
     8    4   41 1
     9    5    6 1
    10    5    7 1
    11    5   16 1
    12    7    8 1
    13    7   42 1
    14    7   43 1
    15    8   13 ar
    16    8    9 ar
    17    9   10 ar
    18    9   44 1
    19   10   11 ar
    20   10   15 1
    21   11   12 ar
    22   11   45 1
    23   12   13 ar
    24   12   14 1
    25   13   46 1
    26   16   17 1
    27   16   18 1
    28   16   37 1
    29   18   19 1
    30   18   47 1
    31   18   48 1
    32   19   20 1
    33   19   49 1
    34   19   71 1
    35   20   26 1
    36   20   21 1
    37   20   27 1
    38   21   22 1
    39   21   50 1
    40   21   51 1
    41   22   23 1
    42   22   52 1
    43   22   53 1
    44   23   24 2
    45   23   25 am
    46   25   26 1
    47   25   54 1
    48   26   55 1
    49   26   56 1
    50   27   32 ar
    51   27   28 ar
    52   28   29 ar
    53   28   57 1
    54   29   30 ar
    55   29   58 1
    56   30   31 ar
    57   30   59 1
    58   31   32 ar
    59   31   33 1
    60   32   60 1
    61   33   34 1
    62   33   35 1
    63   33   36 1
    64   34   61 1
    65   34   62 1
    66   34   63 1
    67   35   64 1
    68   35   65 1
    69   35   66 1
    70   36   67 1
    71   36   68 1
    72   36   69 1
    73   37   70 1
@<TRIPOS>MOLECULE
CHEMBL566810__1
   71    73     0     0     0
SMALL
USER_CHARGES

@<TRIPOS>ATOM
      1 C1         -0.5811    2.4723   -0.4153 C.3       1 <0>        -0.1823
      2 C2         -0.3073    1.0059   -0.6288 C.2       1 <0>         0.5112
      3 O1          0.0552    0.3152    0.2999 O.2       1 <0>        -0.5304
      4 N1         -0.4654    0.4618   -1.8517 N.am      1 <0>        -0.7332
      5 C3         -0.1993   -0.9638   -2.0591 C.3       1 <0>         0.1327
      6 H1         -0.3802   -1.2190   -3.1033 H         1 <0>         0.1065
      7 C4          1.2579   -1.2674   -1.7051 C.3       1 <0>        -0.0990
      8 C5          2.1688   -0.5478   -2.6661 C.ar      1 <0>        -0.0286
      9 C6          2.5612   -1.1647   -3.8389 C.ar      1 <0>        -0.1645
     10 C7          3.3985   -0.5046   -4.7225 C.ar      1 <0>         0.1398
     11 C8          3.8421    0.7737   -4.4310 C.ar      1 <0>        -0.1921
     12 C9          3.4480    1.3908   -3.2563 C.ar      1 <0>         0.1391
     13 C10         2.6065    0.7308   -2.3767 C.ar      1 <0>        -0.1581
     14 F1          3.8801    2.6385   -2.9705 F         1 <0>        -0.1257
     15 F2          3.7827   -1.1083   -5.8685 F         1 <0>        -0.1255
     16 C11        -1.1245   -1.7908   -1.1643 C.3       1 <0>         0.0685
     17 H2         -0.9435   -1.5357   -0.1201 H         1 <0>         0.1462
     18 C12        -2.5817   -1.4873   -1.5183 C.3       1 <0>        -0.0589
     19 N2         -3.4696   -2.1887   -0.5815 N.4       1 <0>        -0.4998
     20 C13        -4.8660   -2.0019   -0.9973 C.3       1 <0>         0.1008
     21 C14        -5.7982   -2.6925    0.0054 C.3       1 <0>        -0.1336
     22 C15        -5.4412   -2.2062    1.4122 C.3       1 <0>        -0.1595
     23 C16        -5.3525   -0.7071    1.4274 C.2       1 <0>         0.4991
     24 O2         -5.4015   -0.1400    2.4983 O.2       1 <0>        -0.5060
     25 N3         -5.2222    0.0338    0.3263 N.am      1 <0>        -0.7321
     26 C17        -5.1975   -0.5093   -1.0261 C.3       1 <0>         0.0948
     27 C18        -5.0682   -2.5912   -2.3695 C.ar      1 <0>        -0.1236
     28 C19        -4.2413   -3.6058   -2.8147 C.ar      1 <0>        -0.1376
     29 C20        -4.4267   -4.1464   -4.0732 C.ar      1 <0>        -0.0924
     30 C21        -5.4393   -3.6727   -4.8866 C.ar      1 <0>        -0.0942
     31 C22        -6.2666   -2.6590   -4.4412 C.ar      1 <0>        -0.0419
     32 C23        -6.0838   -2.1213   -3.1807 C.ar      1 <0>        -0.0892
     33 C24        -7.3700   -2.1424   -5.3281 C.3       1 <0>        -0.0355
     34 C25        -7.3564   -2.9038   -6.6551 C.3       1 <0>        -0.1518
     35 C26        -8.7190   -2.3480   -4.6360 C.3       1 <0>        -0.1431
     36 C27        -7.1550   -0.6510   -5.5935 C.3       1 <0>        -0.1415
     37 O3         -0.8649   -3.1814   -1.3666 O.3       1 <0>        -0.5409
     38 H3          0.3328    3.0412   -0.5863 H         1 <0>         0.1031
     39 H4         -1.3510    2.8034   -1.1123 H         1 <0>         0.0831
     40 H5         -0.9232    2.6330    0.6071 H         1 <0>         0.1002
     41 H6         -0.7554    1.0142   -2.5944 H         1 <0>         0.4117
     42 H7          1.4627   -0.9304   -0.6889 H         1 <0>         0.1085
     43 H8          1.4324   -2.3411   -1.7740 H         1 <0>         0.1020
     44 H9          2.2150   -2.1622   -4.0662 H         1 <0>         0.1431
     45 H10         4.4954    1.2892   -5.1194 H         1 <0>         0.1525
     46 H11         2.2953    1.2138   -1.4622 H         1 <0>         0.1359
     47 H12        -2.7562   -0.4135   -1.4495 H         1 <0>         0.1411
     48 H13        -2.7865   -1.8242   -2.5345 H         1 <0>         0.1463
     49 H14        -3.2477   -3.1730   -0.5808 H         1 <0>         0.4332
     50 H15        -6.8336   -2.4366   -0.2196 H         1 <0>         0.1236
     51 H16        -5.6655   -3.7728   -0.0541 H         1 <0>         0.1120
     52 H17        -6.2101   -2.5305    2.1134 H         1 <0>         0.1382
     53 H18        -4.4812   -2.6287    1.7086 H         1 <0>         0.1036
     54 H19        -5.1391    0.9945    0.4320 H         1 <0>         0.4179
     55 H20        -4.4428    0.0161   -1.6113 H         1 <0>         0.1037
     56 H21        -6.1732   -0.3658   -1.4902 H         1 <0>         0.1165
     57 H22        -3.4503   -3.9758   -2.1793 H         1 <0>         0.1186
     58 H23        -3.7803   -4.9385   -4.4212 H         1 <0>         0.1385
     59 H24        -5.5838   -4.0946   -5.8703 H         1 <0>         0.1417
     60 H25        -6.7326   -1.3318   -2.8311 H         1 <0>         0.1347
     61 H26        -7.5096   -3.9663   -6.4660 H         1 <0>         0.0622
     62 H27        -8.1545   -2.5301   -7.2966 H         1 <0>         0.0680
     63 H28        -6.3954   -2.7573   -7.1482 H         1 <0>         0.0616
     64 H29        -8.7287   -1.8056   -3.6906 H         1 <0>         0.0558
     65 H30        -9.5171   -1.9744   -5.2774 H         1 <0>         0.0683
     66 H31        -8.8721   -3.4105   -4.4469 H         1 <0>         0.0602
     67 H32        -6.1940   -0.5046   -6.0865 H         1 <0>         0.0589
     68 H33        -7.9532   -0.2774   -6.2349 H         1 <0>         0.0683
     69 H34        -7.1648   -0.1087   -4.6480 H         1 <0>         0.0551
     70 H35        -1.0057   -3.4796   -2.2757 H         1 <0>         0.3868
     71 H36        -3.3421   -1.8146    0.3469 H         1 <0>         0.4276
@<TRIPOS>BOND
     1    1    2 1
     2    1   38 1
     3    1   39 1
     4    1   40 1
     5    2    3 2
     6    2    4 am
     7    4    5 1
     8    4   41 1
     9    5    6 1
    10    5    7 1
    11    5   16 1
    12    7    8 1
    13    7   42 1
    14    7   43 1
    15    8   13 ar
    16    8    9 ar
    17    9   10 ar
    18    9   44 1
    19   10   11 ar
    20   10   15 1
    21   11   12 ar
    22   11   45 1
    23   12   13 ar
    24   12   14 1
    25   13   46 1
    26   16   17 1
    27   16   18 1
    28   16   37 1
    29   18   19 1
    30   18   47 1
    31   18   48 1
    32   19   20 1
    33   19   49 1
    34   19   71 1
    35   20   26 1
    36   20   21 1
    37   20   27 1
    38   21   22 1
    39   21   50 1
    40   21   51 1
    41   22   23 1
    42   22   52 1
    43   22   53 1
    44   23   24 2
    45   23   25 am
    46   25   26 1
    47   25   54 1
    48   26   55 1
    49   26   56 1
    50   27   32 ar
    51   27   28 ar
    52   28   29 ar
    53   28   57 1
    54   29   30 ar
    55   29   58 1
    56   30   31 ar
    57   30   59 1
    58   31   32 ar
    59   31   33 1
    60   32   60 1
    61   33   34 1
    62   33   35 1
    63   33   36 1
    64   34   61 1
    65   34   62 1
    66   34   63 1
    67   35   64 1
    68   35   65 1
    69   35   66 1
    70   36   67 1
    71   36   68 1
    72   36   69 1
    73   37   70 1
@<TRIPOS>MOLECULE
CHEMBL212627
   68    73     0     0     0
SMALL
USER_CHARGES

@<TRIPOS>ATOM
      1 C1         -0.7367   -0.4404    0.6675 C.ar      1 <0>        -0.1174
      2 C2          0.3275    0.4360    0.5545 C.ar      1 <0>        -0.1194
      3 C3          1.6158   -0.0483    0.4527 C.ar      1 <0>        -0.1093
      4 C4          1.8435   -1.4231    0.4639 C.ar      1 <0>        -0.0467
      5 C5          0.7676   -2.3015    0.5779 C.ar      1 <0>        -0.1054
      6 C6         -0.5166   -1.8060    0.6791 C.ar      1 <0>        -0.1180
      7 C7          3.2261   -1.9497    0.3543 C.ar      1 <0>        -0.0281
      8 C8          4.3012   -1.0691    0.2457 C.ar      1 <0>        -0.1171
      9 C9          5.5875   -1.5575    0.1438 C.ar      1 <0>        -0.1018
     10 C10         5.8152   -2.9269    0.1495 C.ar      1 <0>         0.1443
     11 C11         4.7424   -3.8132    0.2580 C.ar      1 <0>         0.1426
     12 C12         3.4513   -3.3249    0.3657 C.ar      1 <0>        -0.1071
     13 N1          4.9721   -5.1950    0.2632 N.am      1 <0>        -0.6584
     14 C13         4.1917   -6.0051    1.0057 C.2       1 <0>         0.5650
     15 O1          3.2351   -5.5486    1.6021 O.2       1 <0>        -0.5123
     16 C14         4.4977   -7.4445    1.0949 C.ar      1 <0>        -0.1297
     17 C15         5.6536   -7.9530    0.5203 C.ar      1 <0>        -0.0671
     18 C16         5.9471   -9.3082    0.6006 C.ar      1 <0>        -0.1324
     19 C17         5.1130  -10.1741    1.2426 C.ar      1 <0>        -0.0674
     20 C18         3.9309   -9.7031    1.8397 C.ar      1 <0>        -0.0612
     21 C19         3.6172   -8.3238    1.7737 C.ar      1 <0>        -0.0098
     22 C20         2.4409   -7.8547    2.3738 C.ar      1 <0>        -0.1181
     23 C21         1.6171   -8.7282    3.0179 C.ar      1 <0>        -0.1116
     24 C22         1.9271  -10.0844    3.0897 C.ar      1 <0>        -0.1122
     25 C23         3.0547  -10.5767    2.5069 C.ar      1 <0>        -0.1092
     26 N2          7.1196   -3.4185    0.0460 N.pl3     1 <0>        -0.6738
     27 C24         7.7110   -3.6991   -1.2698 C.3       1 <0>         0.1269
     28 C25         9.0264   -2.9199   -1.3921 C.3       1 <0>         0.0759
     29 N3          9.8311   -3.1650   -0.1870 N.am      1 <0>        -0.6024
     30 C26         9.2397   -2.8844    1.1288 C.3       1 <0>         0.0965
     31 C27         7.9263   -3.6582    1.2508 C.3       1 <0>         0.1336
     32 C28        11.0888   -3.6389   -0.2868 C.2       1 <0>         0.5610
     33 O2         11.7719   -3.7645    0.7108 O.2       1 <0>        -0.5315
     34 C29        11.6377   -4.0062   -1.6096 C.ar      1 <0>        -0.1280
     35 C30        11.4762   -3.1478   -2.6983 C.ar      1 <0>        -0.0954
     36 C31        11.9912   -3.4962   -3.9298 C.ar      1 <0>        -0.1236
     37 C32        12.6661   -4.6938   -4.0871 C.ar      1 <0>        -0.0975
     38 C33        12.8293   -5.5494   -3.0121 C.ar      1 <0>        -0.1216
     39 C34        12.3246   -5.2101   -1.7738 C.ar      1 <0>        -0.0684
     40 H1         -1.7428   -0.0570    0.7514 H         1 <0>         0.1226
     41 H2          0.1498    1.5013    0.5456 H         1 <0>         0.1242
     42 H3          2.4460    0.6369    0.3642 H         1 <0>         0.1253
     43 H4          0.9383   -3.3678    0.5867 H         1 <0>         0.1265
     44 H5         -1.3511   -2.4857    0.7679 H         1 <0>         0.1241
     45 H6          4.1271   -0.0032    0.2410 H         1 <0>         0.1278
     46 H7          6.4188   -0.8732    0.0590 H         1 <0>         0.1279
     47 H8          2.6199   -4.0086    0.4539 H         1 <0>         0.1469
     48 H9          5.6929   -5.5688   -0.2675 H         1 <0>         0.4102
     49 H10         6.3316   -7.2886    0.0053 H         1 <0>         0.1242
     50 H11         6.8523   -9.6827    0.1458 H         1 <0>         0.1320
     51 H12         5.3606  -11.2241    1.2923 H         1 <0>         0.1336
     52 H13         2.1887   -6.8056    2.3263 H         1 <0>         0.1682
     53 H14         0.7112   -8.3640    3.4795 H         1 <0>         0.1254
     54 H15         1.2582  -10.7565    3.6066 H         1 <0>         0.1250
     55 H16         3.2820  -11.6307    2.5691 H         1 <0>         0.1298
     56 H17         7.9085   -4.7671   -1.3618 H         1 <0>         0.0558
     57 H18         7.0240   -3.3826   -2.0546 H         1 <0>         0.0850
     58 H19         9.5725   -3.2599   -2.2720 H         1 <0>         0.1055
     59 H20         8.8136   -1.8545   -1.4795 H         1 <0>         0.0755
     60 H21         9.9267   -3.2008    1.9136 H         1 <0>         0.0996
     61 H22         9.0422   -1.8164    1.2208 H         1 <0>         0.0718
     62 H23         7.3815   -3.3148    2.1302 H         1 <0>         0.0835
     63 H24         8.1395   -4.7232    1.3424 H         1 <0>         0.0554
     64 H25        10.9490   -2.2131   -2.5769 H         1 <0>         0.1310
     65 H26        11.8670   -2.8329   -4.7730 H         1 <0>         0.1303
     66 H27        13.0671   -4.9620   -5.0534 H         1 <0>         0.1283
     67 H28        13.3568   -6.4828   -3.1416 H         1 <0>         0.1306
     68 H29        12.4568   -5.8766   -0.9343 H         1 <0>         0.1299
@<TRIPOS>BOND
     1    1    6 ar
     2    1    2 ar
     3    1   40 1
     4    2    3 ar
     5    2   41 1
     6    3    4 ar
     7    3   42 1
     8    4    5 ar
     9    4    7 1
    10    5    6 ar
    11    5   43 1
    12    6   44 1
    13    7   12 ar
    14    7    8 ar
    15    8    9 ar
    16    8   45 1
    17    9   10 ar
    18    9   46 1
    19   10   11 ar
    20   10   26 1
    21   11   12 ar
    22   11   13 1
    23   12   47 1
    24   13   14 am
    25   13   48 1
    26   14   15 2
    27   14   16 1
    28   16   21 ar
    29   16   17 ar
    30   17   18 ar
    31   17   49 1
    32   18   19 ar
    33   18   50 1
    34   19   20 ar
    35   19   51 1
    36   20   25 ar
    37   20   21 ar
    38   21   22 ar
    39   22   23 ar
    40   22   52 1
    41   23   24 ar
    42   23   53 1
    43   24   25 ar
    44   24   54 1
    45   25   55 1
    46   26   31 1
    47   26   27 1
    48   27   28 1
    49   27   56 1
    50   27   57 1
    51   28   29 1
    52   28   58 1
    53   28   59 1
    54   29   30 1
    55   29   32 am
    56   30   31 1
    57   30   60 1
    58   30   61 1
    59   31   62 1
    60   31   63 1
    61   32   33 2
    62   32   34 1
    63   34   39 ar
    64   34   35 ar
    65   35   36 ar
    66   35   64 1
    67   36   37 ar
    68   36   65 1
    69   37   38 ar
    70   37   66 1
    71   38   39 ar
    72   38   67 1
    73   39   68 1
@<TRIPOS>MOLECULE
CHEMBL376072
   79    81     0     0     0
SMALL
USER_CHARGES

@<TRIPOS>ATOM
      1 C1         -0.0187    1.5258    0.0104 C.3       1 <0>        -0.1910
      2 C2          0.0021   -0.0041    0.0020 C.3       1 <0>        -0.0104
      3 N1         -1.3761   -0.5125    0.0124 N.4       1 <0>        -0.5055
      4 C3         -1.3562   -1.9814    0.0044 C.3       1 <0>        -0.0468
      5 C4         -2.7915   -2.5110    0.0152 C.3       1 <0>         0.0739
      6 H1         -3.3284   -2.0882    0.8645 H         1 <0>         0.1346
      7 C5         -2.7715   -4.0363    0.1326 C.3       1 <0>         0.1274
      8 H2         -2.1949   -4.3256    1.0112 H         1 <0>         0.1113
      9 C6         -2.1284   -4.6357   -1.1196 C.3       1 <0>        -0.1021
     10 C7         -1.9968   -6.1276   -0.9517 C.ar      1 <0>        -0.0795
     11 C8         -0.8546   -6.6612   -0.3845 C.ar      1 <0>        -0.1060
     12 C9         -0.7339   -8.0296   -0.2305 C.ar      1 <0>        -0.1103
     13 C10        -1.7555   -8.8644   -0.6431 C.ar      1 <0>        -0.1100
     14 C11        -2.8981   -8.3307   -1.2094 C.ar      1 <0>        -0.1099
     15 C12        -3.0206   -6.9620   -1.3596 C.ar      1 <0>        -0.1068
     16 N2         -4.1431   -4.5341    0.2631 N.am      1 <0>        -0.7240
     17 C13        -4.3764   -5.7165    0.8666 C.2       1 <0>         0.5668
     18 O1         -3.4487   -6.3697    1.3025 O.2       1 <0>        -0.4973
     19 C14        -5.7609   -6.2189    0.9983 C.ar      1 <0>        -0.1128
     20 C15        -6.8245   -5.4733    0.4936 C.ar      1 <0>        -0.0825
     21 C16        -8.1273   -5.9504    0.6193 C.ar      1 <0>        -0.0981
     22 C17        -8.3636   -7.1731    1.2499 C.ar      1 <0>        -0.0745
     23 C18        -7.3026   -7.9128    1.7517 C.ar      1 <0>         0.1700
     24 C19        -6.0032   -7.4431    1.6230 C.ar      1 <0>        -0.0609
     25 N3         -7.5425   -9.1361    2.3834 N.pl3     1 <0>        -0.9430
     26 C20        -6.4932  -10.1576    2.4243 C.3       1 <0>         0.0778
     27 S1         -9.0130   -9.4310    3.0856 S.o2      1 <0>         2.5928
     28 O2         -8.7444  -10.3879    4.1013 O.2       1 <0>        -0.9344
     29 O3         -9.5208   -8.1459    3.4170 O.2       1 <0>        -0.9342
     30 C21       -10.0154  -10.1792    1.7717 C.3       1 <0>        -0.6706
     31 C22        -9.2589   -5.1620    0.0855 C.2       1 <0>         0.5611
     32 O4        -10.3953   -5.5788    0.1955 O.2       1 <0>        -0.5147
     33 N4         -9.0300   -3.9813   -0.5229 N.am      1 <0>        -0.7206
     34 C23       -10.1510   -3.2003   -1.0516 C.3       1 <0>         0.1841
     35 H3        -11.0174   -3.3223   -0.4015 H         1 <0>         0.1050
     36 C24       -10.4961   -3.6918   -2.4588 C.3       1 <0>        -0.1608
     37 C25        -9.7664   -1.7444   -1.1083 C.ar      1 <0>        -0.1033
     38 C26        -8.4963   -1.3808   -1.5154 C.ar      1 <0>        -0.0880
     39 C27        -8.1426   -0.0459   -1.5681 C.ar      1 <0>        -0.1504
     40 C28        -9.0609    0.9276   -1.2131 C.ar      1 <0>         0.1009
     41 C29       -10.3327    0.5623   -0.8055 C.ar      1 <0>        -0.1450
     42 C30       -10.6858   -0.7730   -0.7585 C.ar      1 <0>        -0.0726
     43 F1         -8.7161    2.2328   -1.2638 F         1 <0>        -0.1376
     44 O5         -3.4471   -2.1351   -1.1976 O.3       1 <0>        -0.5497
     45 H4          1.0039    1.9031    0.0027 H         1 <0>         0.1085
     46 H5         -0.5459    1.8868   -0.8726 H         1 <0>         0.0817
     47 H6         -0.5289    1.8773    0.9072 H         1 <0>         0.0818
     48 H7          0.5123   -0.3556   -0.8948 H         1 <0>         0.1316
     49 H8          0.5293   -0.3651    0.8851 H         1 <0>         0.1323
     50 H9         -1.8484   -0.1871    0.8426 H         1 <0>         0.4295
     51 H10        -0.8460   -2.3329   -0.8924 H         1 <0>         0.1414
     52 H11        -0.8290   -2.3425    0.8874 H         1 <0>         0.1475
     53 H12        -2.7529   -4.4214   -1.9869 H         1 <0>         0.0826
     54 H13        -1.1409   -4.1981   -1.2659 H         1 <0>         0.0799
     55 H14        -0.0564   -6.0090   -0.0621 H         1 <0>         0.1120
     56 H15         0.1587   -8.4465    0.2119 H         1 <0>         0.1199
     57 H16        -1.6609   -9.9336   -0.5234 H         1 <0>         0.1205
     58 H17        -3.6961   -8.9829   -1.5321 H         1 <0>         0.1179
     59 H18        -3.9148   -6.5448   -1.7986 H         1 <0>         0.1107
     60 H19        -4.8834   -4.0128   -0.0848 H         1 <0>         0.4045
     61 H20        -6.6392   -4.5274    0.0064 H         1 <0>         0.1269
     62 H21        -9.3734   -7.5435    1.3477 H         1 <0>         0.1478
     63 H22        -5.1790   -8.0234    2.0107 H         1 <0>         0.1507
     64 H23        -5.8880  -10.0210    3.3206 H         1 <0>         0.0753
     65 H24        -6.9499  -11.1471    2.4416 H         1 <0>         0.0879
     66 H25        -5.8609  -10.0645    1.5413 H         1 <0>         0.0842
     67 H26        -9.5397  -11.0987    1.4308 H         1 <0>         0.1340
     68 H27       -11.0094  -10.4057    2.1574 H         1 <0>         0.1400
     69 H28       -10.0994   -9.4826    0.9375 H         1 <0>         0.1326
     70 H29        -8.1230   -3.6487   -0.6106 H         1 <0>         0.3953
     71 H30        -9.6297   -3.5699   -3.1089 H         1 <0>         0.0600
     72 H31       -10.7743   -4.7449   -2.4179 H         1 <0>         0.0696
     73 H32       -11.3302   -3.1107   -2.8523 H         1 <0>         0.0731
     74 H33        -7.7800   -2.1404   -1.7920 H         1 <0>         0.1281
     75 H34        -7.1501    0.2378   -1.8859 H         1 <0>         0.1347
     76 H35       -11.0497    1.3208   -0.5280 H         1 <0>         0.1413
     77 H36       -11.6792   -1.0580   -0.4449 H         1 <0>         0.1395
     78 H37        -3.0228   -2.4772   -1.9964 H         1 <0>         0.3920
     79 H38        -1.8641   -0.1783   -0.8050 H         1 <0>         0.4324
@<TRIPOS>BOND
     1    1    2 1
     2    1   45 1
     3    1   46 1
     4    1   47 1
     5    2    3 1
     6    2   48 1
     7    2   49 1
     8    3    4 1
     9    3   50 1
    10    3   79 1
    11    4    5 1
    12    4   51 1
    13    4   52 1
    14    5    6 1
    15    5    7 1
    16    5   44 1
    17    7    8 1
    18    7    9 1
    19    7   16 1
    20    9   10 1
    21    9   53 1
    22    9   54 1
    23   10   15 ar
    24   10   11 ar
    25   11   12 ar
    26   11   55 1
    27   12   13 ar
    28   12   56 1
    29   13   14 ar
    30   13   57 1
    31   14   15 ar
    32   14   58 1
    33   15   59 1
    34   16   17 am
    35   16   60 1
    36   17   18 2
    37   17   19 1
    38   19   24 ar
    39   19   20 ar
    40   20   21 ar
    41   20   61 1
    42   21   22 ar
    43   21   31 1
    44   22   23 ar
    45   22   62 1
    46   23   24 ar
    47   23   25 1
    48   24   63 1
    49   25   26 1
    50   25   27 1
    51   26   64 1
    52   26   65 1
    53   26   66 1
    54   27   28 2
    55   27   29 2
    56   27   30 1
    57   30   67 1
    58   30   68 1
    59   30   69 1
    60   31   32 2
    61   31   33 am
    62   33   34 1
    63   33   70 1
    64   34   35 1
    65   34   36 1
    66   34   37 1
    67   36   71 1
    68   36   72 1
    69   36   73 1
    70   37   42 ar
    71   37   38 ar
    72   38   39 ar
    73   38   74 1
    74   39   40 ar
    75   39   75 1
    76   40   41 ar
    77   40   43 1
    78   41   42 ar
    79   41   76 1
    80   42   77 1
    81   44   78 1
@<TRIPOS>MOLECULE
CHEMBL255192
   91    95     0     0     0
SMALL
USER_CHARGES

@<TRIPOS>ATOM
      1 C1         -0.0011    1.6430    0.0586 C.3       1 <0>        -0.1823
      2 C2          0.0197    0.1134    0.0311 C.3       1 <0>         0.0036
      3 H1         -1.0029   -0.2640    0.0322 H         1 <0>         0.1666
      4 C3          0.7274   -0.3571   -1.2134 C.2       1 <0>         0.5028
      5 O1          1.7237   -1.0426   -1.1220 O.2       1 <0>        -0.5237
      6 N1          0.2532   -0.0161   -2.4280 N.am      1 <0>        -0.6975
      7 C4          0.9412   -0.4734   -3.6379 C.3       1 <0>         0.1415
      8 C5          2.0794    0.4924   -3.9732 C.3       1 <0>        -0.1279
      9 C6          2.7980    0.0147   -5.2367 C.3       1 <0>        -0.1194
     10 C7          1.8067   -0.0294   -6.4014 C.3       1 <0>        -0.1262
     11 C8          0.6684   -0.9952   -6.0660 C.3       1 <0>        -0.1182
     12 C9         -0.0501   -0.5175   -4.8025 C.3       1 <0>        -0.1279
     13 N2          0.7280   -0.3881    1.2164 N.4       1 <0>        -0.4890
     14 C10        -0.0267   -0.0313    2.4252 C.3       1 <0>        -0.0500
     15 C11         0.7109   -0.5536    3.6597 C.3       1 <0>         0.0763
     16 H2          0.8821   -1.6249    3.5545 H         1 <0>         0.1354
     17 C12        -0.1347   -0.2923    4.9076 C.3       1 <0>         0.1281
     18 H3         -1.1238   -0.7306    4.7746 H         1 <0>         0.1099
     19 C13        -0.2704    1.2161    5.1252 C.3       1 <0>        -0.1019
     20 C14        -1.2028    1.4752    6.2804 C.ar      1 <0>        -0.0787
     21 C15        -2.5597    1.6138    6.0557 C.ar      1 <0>        -0.1072
     22 C16        -3.4150    1.8515    7.1154 C.ar      1 <0>        -0.1116
     23 C17        -2.9134    1.9501    8.3998 C.ar      1 <0>        -0.1104
     24 C18        -1.5566    1.8106    8.6245 C.ar      1 <0>        -0.1073
     25 C19        -0.7018    1.5686    7.5654 C.ar      1 <0>        -0.1036
     26 N3          0.5147   -0.8973    6.0731 N.am      1 <0>        -0.7246
     27 C20        -0.2198   -1.2488    7.1471 C.2       1 <0>         0.5681
     28 O2         -1.4212   -1.0638    7.1486 O.2       1 <0>        -0.5036
     29 C21         0.4358   -1.8595    8.3235 C.ar      1 <0>        -0.0647
     30 C22        -0.3239   -2.2292    9.4337 C.ar      1 <0>        -0.1569
     31 C23         0.2944   -2.8021   10.5351 C.ar      1 <0>         0.2618
     32 C24         1.6680   -3.0074   10.5336 C.ar      1 <0>        -0.2114
     33 C25         2.4267   -2.6402    9.4307 C.ar      1 <0>         0.2111
     34 C26         1.8142   -2.0724    8.3234 C.ar      1 <0>        -0.1929
     35 N4          3.8106   -2.8484    9.4337 N.am      1 <0>        -0.5619
     36 C27         4.6874   -2.6039    8.2825 C.3       1 <0>         0.0967
     37 C28         6.1189   -2.5439    8.8600 C.3       1 <0>        -0.1325
     38 C29         5.9768   -3.3939   10.1438 C.3       1 <0>        -0.1550
     39 C30         4.5084   -3.2927   10.4933 C.2       1 <0>         0.5163
     40 O3          4.0301   -3.5739   11.5717 O.2       1 <0>        -0.5023
     41 N5         -0.4654   -3.1728   11.6474 N.pl3     1 <0>        -0.6289
     42 C31         0.0589   -3.7812   12.8789 C.3       1 <0>         0.1111
     43 C32        -1.1440   -4.0385   13.8108 C.3       1 <0>        -0.1327
     44 C33        -2.3429   -4.0815   12.8269 C.3       1 <0>        -0.1340
     45 C34        -1.9246   -3.0127   11.7833 C.3       1 <0>         0.1104
     46 O4          1.9655    0.1191    3.7850 O.3       1 <0>        -0.5473
     47 H4          1.0215    2.0204    0.0575 H         1 <0>         0.0917
     48 H5         -0.5267    2.0150   -0.8209 H         1 <0>         0.1121
     49 H6         -0.5130    1.9833    0.9587 H         1 <0>         0.0970
     50 H7         -0.5437    0.5322   -2.5011 H         1 <0>         0.4087
     51 H8          1.3483   -1.4704   -3.4694 H         1 <0>         0.0973
     52 H9          1.6723    1.4893   -4.1417 H         1 <0>         0.0680
     53 H10         2.7856    0.5238   -3.1435 H         1 <0>         0.0662
     54 H11         3.6089    0.7028   -5.4757 H         1 <0>         0.0712
     55 H12         3.2051   -0.9822   -5.0683 H         1 <0>         0.0669
     56 H13         1.3995    0.9676   -6.5698 H         1 <0>         0.0654
     57 H14         2.3186   -0.3696   -7.3015 H         1 <0>         0.0707
     58 H15        -0.0378   -1.0265   -6.8957 H         1 <0>         0.0744
     59 H16         1.0756   -1.9921   -5.8975 H         1 <0>         0.0678
     60 H17        -0.8610   -1.2056   -4.5635 H         1 <0>         0.0719
     61 H18        -0.4573    0.4795   -4.9709 H         1 <0>         0.0726
     62 H19         0.8137   -1.3917    1.1574 H         1 <0>         0.4366
     63 H20        -0.1194    1.0529    2.4889 H         1 <0>         0.1447
     64 H21        -1.0196   -0.4787    2.3789 H         1 <0>         0.1504
     65 H22         0.7088    1.6408    5.3463 H         1 <0>         0.0823
     66 H23        -0.6718    1.6786    4.2234 H         1 <0>         0.0781
     67 H24        -2.9516    1.5368    5.0523 H         1 <0>         0.1113
     68 H25        -4.4750    1.9605    6.9398 H         1 <0>         0.1190
     69 H26        -3.5815    2.1365    9.2276 H         1 <0>         0.1195
     70 H27        -1.1647    1.8879    9.6279 H         1 <0>         0.1173
     71 H28         0.3577    1.4559    7.7414 H         1 <0>         0.1106
     72 H29         1.4734   -1.0449    6.0719 H         1 <0>         0.4059
     73 H30        -1.3919   -2.0692    9.4357 H         1 <0>         0.1339
     74 H31         2.1471   -3.4534   11.3927 H         1 <0>         0.1600
     75 H32         2.4046   -1.7911    7.4640 H         1 <0>         0.1211
     76 H33         4.6041   -3.4201    7.5648 H         1 <0>         0.0821
     77 H34         4.4319   -1.6563    7.8083 H         1 <0>         0.0855
     78 H35         6.8360   -2.9925    8.1725 H         1 <0>         0.0987
     79 H36         6.4000   -1.5185    9.1002 H         1 <0>         0.0876
     80 H37         6.2559   -4.4294    9.9486 H         1 <0>         0.1125
     81 H38         6.5866   -2.9782   10.9460 H         1 <0>         0.1104
     82 H39         0.5547   -4.7233   12.6450 H         1 <0>         0.0645
     83 H40         0.7609   -3.0997   13.3593 H         1 <0>         0.0654
     84 H41        -1.0346   -4.9921   14.3274 H         1 <0>         0.0847
     85 H42        -1.2601   -3.2230   14.5248 H         1 <0>         0.0781
     86 H43        -2.4362   -5.0655   12.3675 H         1 <0>         0.0771
     87 H44        -3.2687   -3.7959   13.3264 H         1 <0>         0.0862
     88 H45        -2.1645   -2.0125   12.1440 H         1 <0>         0.0654
     89 H46        -2.4173   -3.2012   10.8295 H         1 <0>         0.0728
     90 H47         1.8895    1.0782    3.8825 H         1 <0>         0.3909
     91 H48         1.6470    0.0261    1.2592 H         1 <0>         0.4372
@<TRIPOS>BOND
     1    1    2 1
     2    1   47 1
     3    1   48 1
     4    1   49 1
     5    2    3 1
     6    2    4 1
     7    2   13 1
     8    4    5 2
     9    4    6 am
    10    6    7 1
    11    6   50 1
    12    7   12 1
    13    7    8 1
    14    7   51 1
    15    8    9 1
    16    8   52 1
    17    8   53 1
    18    9   10 1
    19    9   54 1
    20    9   55 1
    21   10   11 1
    22   10   56 1
    23   10   57 1
    24   11   12 1
    25   11   58 1
    26   11   59 1
    27   12   60 1
    28   12   61 1
    29   13   14 1
    30   13   62 1
    31   13   91 1
    32   14   15 1
    33   14   63 1
    34   14   64 1
    35   15   16 1
    36   15   17 1
    37   15   46 1
    38   17   18 1
    39   17   19 1
    40   17   26 1
    41   19   20 1
    42   19   65 1
    43   19   66 1
    44   20   25 ar
    45   20   21 ar
    46   21   22 ar
    47   21   67 1
    48   22   23 ar
    49   22   68 1
    50   23   24 ar
    51   23   69 1
    52   24   25 ar
    53   24   70 1
    54   25   71 1
    55   26   27 am
    56   26   72 1
    57   27   28 2
    58   27   29 1
    59   29   34 ar
    60   29   30 ar
    61   30   31 ar
    62   30   73 1
    63   31   32 ar
    64   31   41 1
    65   32   33 ar
    66   32   74 1
    67   33   34 ar
    68   33   35 1
    69   34   75 1
    70   35   39 am
    71   35   36 1
    72   36   37 1
    73   36   76 1
    74   36   77 1
    75   37   38 1
    76   37   78 1
    77   37   79 1
    78   38   39 1
    79   38   80 1
    80   38   81 1
    81   39   40 2
    82   41   45 1
    83   41   42 1
    84   42   43 1
    85   42   82 1
    86   42   83 1
    87   43   44 1
    88   43   84 1
    89   43   85 1
    90   44   45 1
    91   44   86 1
    92   44   87 1
    93   45   88 1
    94   45   89 1
    95   46   90 1
@<TRIPOS>MOLECULE
CHEMBL501338
   79    83     0     0     0
SMALL
USER_CHARGES

@<TRIPOS>ATOM
      1 C1         -0.0187    1.5258    0.0104 C.3       1 <0>        -0.1725
      2 C2          0.0021   -0.0041    0.0020 C.3       1 <0>         0.1046
      3 N1          0.6878   -0.4765   -1.2033 N.pl3     1 <0>        -0.4803
      4 C3          0.0711   -0.8266   -2.3713 C.2       1 <0>         0.0721
      5 C4          0.9875   -1.2147   -3.2752 C.2       1 <0>        -0.2006
      6 C5          2.2963   -1.1038   -2.6328 C.ar      1 <0>        -0.0729
      7 C6          2.0519   -0.6287   -1.3304 C.ar      1 <0>         0.0952
      8 C7          3.1167   -0.4141   -0.4673 C.ar      1 <0>        -0.0838
      9 C8          4.4186   -0.6655   -0.8934 C.ar      1 <0>        -0.1148
     10 C9          4.6619   -1.1345   -2.1914 C.ar      1 <0>        -0.0802
     11 C10         3.6107   -1.3596   -3.0550 C.ar      1 <0>         0.1878
     12 N2          3.8539   -1.8259   -4.3508 N.am      1 <0>        -0.5803
     13 C11         4.0997   -0.9600   -5.5100 C.3       1 <0>         0.1055
     14 C12         4.7331   -1.8753   -6.5812 C.3       1 <0>        -0.1320
     15 C13         4.1887   -3.2635   -6.1716 C.3       1 <0>        -0.1536
     16 C14         3.8983   -3.1250   -4.6935 C.2       1 <0>         0.5218
     17 O1          3.7276   -4.0513   -3.9292 O.2       1 <0>        -0.5180
     18 C15         5.5490   -0.4361    0.0275 C.2       1 <0>         0.5703
     19 O2          6.6871   -0.6544   -0.3407 O.2       1 <0>        -0.5023
     20 N3          5.3197    0.0153    1.2766 N.am      1 <0>        -0.7267
     21 C16         6.4417    0.2431    2.1906 C.3       1 <0>         0.1278
     22 H1          7.2133   -0.5058    2.0123 H         1 <0>         0.1104
     23 C17         7.0203    1.6388    1.9501 C.3       1 <0>        -0.1013
     24 C18         7.6136    1.7050    0.5663 C.ar      1 <0>        -0.0793
     25 C19         8.9391    1.3676    0.3658 C.ar      1 <0>        -0.1065
     26 C20         9.4833    1.4283   -0.9035 C.ar      1 <0>        -0.1111
     27 C21         8.7020    1.8260   -1.9722 C.ar      1 <0>        -0.1101
     28 C22         7.3763    2.1625   -1.7718 C.ar      1 <0>        -0.1084
     29 C23         6.8309    2.0977   -0.5033 C.ar      1 <0>        -0.1044
     30 C24         5.9517    0.1363    3.6361 C.3       1 <0>         0.0744
     31 H2          5.4597   -0.8252    3.7829 H         1 <0>         0.1341
     32 C25         7.1437    0.2499    4.5884 C.3       1 <0>        -0.0478
     33 N4          6.6910    0.0282    5.9682 N.4       1 <0>        -0.5052
     34 C26         7.8356    0.1373    6.8826 C.3       1 <0>         0.0466
     35 C27         7.3712   -0.0902    8.2981 C.ar      1 <0>        -0.1684
     36 C28         6.9449    0.9777    9.0658 C.ar      1 <0>        -0.0603
     37 C29         6.5190    0.7691   10.3640 C.ar      1 <0>        -0.1109
     38 C30         6.5187   -0.5076   10.8948 C.ar      1 <0>        -0.0359
     39 C31         6.9440   -1.5752   10.1270 C.ar      1 <0>        -0.1744
     40 C32         7.3661   -1.3671    8.8270 C.ar      1 <0>        -0.0436
     41 C33         6.9443   -2.9667   10.7057 C.3       1 <0>         0.5060
     42 F1          6.4758   -2.9239   12.0232 F         1 <0>        -0.1689
     43 F2          6.1108   -3.7899    9.9409 F         1 <0>        -0.1727
     44 F3          8.2464   -3.4780   10.6901 F         1 <0>        -0.1700
     45 O3          5.0255    1.1910    3.9042 O.3       1 <0>        -0.5497
     46 H3          1.0039    1.9031    0.0027 H         1 <0>         0.0604
     47 H4         -0.5459    1.8868   -0.8726 H         1 <0>         0.0658
     48 H5         -0.5289    1.8773    0.9072 H         1 <0>         0.0767
     49 H6          0.5293   -0.3651    0.8851 H         1 <0>         0.0849
     50 H7         -1.0205   -0.3814    0.0098 H         1 <0>         0.0956
     51 H8         -0.9948   -0.7963   -2.5428 H         1 <0>         0.1750
     52 H9          0.7936   -1.5458   -4.2848 H         1 <0>         0.1481
     53 H10         2.9362   -0.0520    0.5341 H         1 <0>         0.1214
     54 H11         5.6746   -1.3266   -2.5138 H         1 <0>         0.1379
     55 H12         3.1609   -0.5445   -5.8762 H         1 <0>         0.0768
     56 H13         4.7889   -0.1589   -5.2430 H         1 <0>         0.0809
     57 H14         4.3919   -1.6015   -7.5795 H         1 <0>         0.0962
     58 H15         5.8212   -1.8500   -6.5219 H         1 <0>         0.0852
     59 H16         3.2774   -3.4938   -6.7235 H         1 <0>         0.1092
     60 H17         4.9421   -4.0332   -6.3391 H         1 <0>         0.1061
     61 H18         4.4118    0.1895    1.5703 H         1 <0>         0.4042
     62 H19         6.2277    2.3814    2.0414 H         1 <0>         0.0814
     63 H20         7.7961    1.8427    2.6881 H         1 <0>         0.0790
     64 H21         9.5495    1.0569    1.2008 H         1 <0>         0.1117
     65 H22        10.5191    1.1654   -1.0601 H         1 <0>         0.1195
     66 H23         9.1274    1.8741   -2.9638 H         1 <0>         0.1200
     67 H24         6.7659    2.4735   -2.6068 H         1 <0>         0.1175
     68 H25         5.7942    2.3570   -0.3473 H         1 <0>         0.1098
     69 H26         7.8909   -0.4992    4.3263 H         1 <0>         0.1499
     70 H27         7.5818    1.2446    4.5052 H         1 <0>         0.1436
     71 H28         5.9994    0.7217    6.2108 H         1 <0>         0.4325
     72 H29         8.5827   -0.6118    6.6205 H         1 <0>         0.1435
     73 H30         8.2736    1.1319    6.7993 H         1 <0>         0.1446
     74 H31         6.9450    1.9750    8.6512 H         1 <0>         0.1436
     75 H32         6.1866    1.6034   10.9640 H         1 <0>         0.1511
     76 H33         6.1866   -0.6705   11.9094 H         1 <0>         0.1531
     77 H34         7.6948   -2.2019    8.2258 H         1 <0>         0.1442
     78 H35         5.3959    2.0774    3.7932 H         1 <0>         0.3914
     79 H36         6.2856   -0.8925    6.0453 H         1 <0>         0.4297
@<TRIPOS>BOND
     1    1    2 1
     2    1   46 1
     3    1   47 1
     4    1   48 1
     5    2    3 1
     6    2   49 1
     7    2   50 1
     8    3    7 1
     9    3    4 1
    10    4    5 2
    11    4   51 1
    12    5    6 1
    13    5   52 1
    14    6   11 ar
    15    6    7 ar
    16    7    8 ar
    17    8    9 ar
    18    8   53 1
    19    9   10 ar
    20    9   18 1
    21   10   11 ar
    22   10   54 1
    23   11   12 1
    24   12   16 am
    25   12   13 1
    26   13   14 1
    27   13   55 1
    28   13   56 1
    29   14   15 1
    30   14   57 1
    31   14   58 1
    32   15   16 1
    33   15   59 1
    34   15   60 1
    35   16   17 2
    36   18   19 2
    37   18   20 am
    38   20   21 1
    39   20   61 1
    40   21   22 1
    41   21   23 1
    42   21   30 1
    43   23   24 1
    44   23   62 1
    45   23   63 1
    46   24   29 ar
    47   24   25 ar
    48   25   26 ar
    49   25   64 1
    50   26   27 ar
    51   26   65 1
    52   27   28 ar
    53   27   66 1
    54   28   29 ar
    55   28   67 1
    56   29   68 1
    57   30   31 1
    58   30   32 1
    59   30   45 1
    60   32   33 1
    61   32   69 1
    62   32   70 1
    63   33   34 1
    64   33   71 1
    65   33   79 1
    66   34   35 1
    67   34   72 1
    68   34   73 1
    69   35   40 ar
    70   35   36 ar
    71   36   37 ar
    72   36   74 1
    73   37   38 ar
    74   37   75 1
    75   38   39 ar
    76   38   76 1
    77   39   40 ar
    78   39   41 1
    79   40   77 1
    80   41   42 1
    81   41   43 1
    82   41   44 1
    83   45   78 1
@<TRIPOS>MOLECULE
CHEMBL236851
   57    60     0     0     0
SMALL
USER_CHARGES

@<TRIPOS>ATOM
      1 C1          1.2078   -2.1925    3.7808 C.3       1 <0>        -0.2019
      2 C2          0.4614   -1.2957    2.8270 C.2       1 <0>         0.3967
      3 O1          0.6245   -0.0945    2.8705 O.2       1 <0>        -0.4601
      4 C3         -0.4634   -1.8760    1.8449 C.ar      1 <0>        -0.2087
      5 C4         -0.6579   -3.2621    1.7965 C.ar      1 <0>        -0.0303
      6 C5         -1.5228   -3.7989    0.8781 C.ar      1 <0>        -0.2087
      7 C6         -2.2065   -2.9694   -0.0048 C.ar      1 <0>         0.1569
      8 C7         -2.0165   -1.5920    0.0389 C.ar      1 <0>        -0.1584
      9 C8         -1.1582   -1.0448    0.9574 C.ar      1 <0>        -0.0215
     10 O2         -3.0610   -3.5053   -0.9116 O.3       1 <0>        -0.2528
     11 C9         -3.2030   -4.8565   -0.9333 C.ar      1 <0>         0.0811
     12 C10        -4.1164   -5.4706   -0.0866 C.ar      1 <0>        -0.1186
     13 C11        -4.2634   -6.8413   -0.1057 C.ar      1 <0>        -0.0889
     14 C12        -3.4925   -7.6119   -0.9777 C.ar      1 <0>         0.0074
     15 C13        -2.5755   -6.9909   -1.8273 C.ar      1 <0>        -0.0891
     16 C14        -2.4384   -5.6192   -1.8063 C.ar      1 <0>        -0.1160
     17 C15        -3.6467   -9.0822   -1.0010 C.2       1 <0>        -0.1240
     18 C16        -4.7919   -9.8239   -1.0666 C.2       1 <0>        -0.0540
     19 C17        -4.6907  -11.2079   -1.0766 C.2       1 <0>        -0.0705
     20 C18        -3.4466  -11.7751   -1.0203 C.2       1 <0>        -0.1546
     21 S1         -2.3837  -10.3426   -0.9586 S.3       1 <0>         0.0787
     22 C19        -5.9067  -12.0555   -1.1465 C.ar      1 <0>        -0.0214
     23 C20        -6.1617  -12.8205   -2.2828 C.ar      1 <0>        -0.0862
     24 C21        -7.2939  -13.6074   -2.3424 C.ar      1 <0>        -0.1125
     25 C22        -8.1758  -13.6376   -1.2769 C.ar      1 <0>        -0.1048
     26 C23        -7.9287  -12.8808   -0.1461 C.ar      1 <0>        -0.1095
     27 C24        -6.7956  -12.0938   -0.0729 C.ar      1 <0>        -0.0281
     28 Cl1        -6.4829  -11.1492    1.3496 Cl        1 <0>        -0.0619
     29 C25        -6.1395   -9.1520   -1.1265 C.3       1 <0>        -0.0953
     30 C26        -6.4940   -8.8645   -2.5627 C.2       1 <0>         0.5212
     31 O3         -5.7768   -9.2663   -3.4579 O.2       1 <0>        -0.5369
     32 N1         -7.5930   -8.1703   -2.8510 N.2       1 <0>        -0.7030
     33 C27        -7.5174   -7.1050   -3.6387 C.2       1 <0>         0.7000
     34 N2         -6.3019   -6.6433   -4.0451 N.pl3     1 <0>        -0.8621
     35 N3         -8.6553   -6.4732   -4.0410 N.pl3     1 <0>        -0.8260
     36 H1          1.8411   -1.5867    4.4288 H         1 <0>         0.0860
     37 H2          0.4950   -2.7505    4.3880 H         1 <0>         0.0936
     38 H3          1.8270   -2.8889    3.2155 H         1 <0>         0.0936
     39 H4         -0.1272   -3.9070    2.4813 H         1 <0>         0.1372
     40 H5         -1.6732   -4.8677    0.8397 H         1 <0>         0.1357
     41 H6         -2.5495   -0.9522   -0.6489 H         1 <0>         0.1402
     42 H7         -1.0148    0.0250    0.9935 H         1 <0>         0.1429
     43 H8         -4.7122   -4.8737    0.5881 H         1 <0>         0.1373
     44 H9         -4.9737   -7.3182    0.5534 H         1 <0>         0.1373
     45 H10        -1.9773   -7.5838   -2.5034 H         1 <0>         0.1367
     46 H11        -1.7322   -5.1377   -2.4665 H         1 <0>         0.1378
     47 H12        -3.1770  -12.8209   -1.0176 H         1 <0>         0.1898
     48 H13        -5.4746  -12.7975   -3.1158 H         1 <0>         0.1321
     49 H14        -7.4921  -14.2006   -3.2228 H         1 <0>         0.1308
     50 H15        -9.0608  -14.2545   -1.3285 H         1 <0>         0.1332
     51 H16        -8.6205  -12.9082    0.6827 H         1 <0>         0.1356
     52 H17        -6.8925   -9.8087   -0.6908 H         1 <0>         0.1066
     53 H18        -6.1047   -8.2174   -0.5667 H         1 <0>         0.0990
     54 H19        -5.4933   -7.1116   -3.7845 H         1 <0>         0.4210
     55 H20        -6.2449   -5.8463   -4.5950 H         1 <0>         0.4010
     56 H21        -9.5208   -6.8020   -3.7516 H         1 <0>         0.4256
     57 H22        -8.6000   -5.6946   -4.6168 H         1 <0>         0.4105
@<TRIPOS>BOND
     1    1    2 1
     2    1   36 1
     3    1   37 1
     4    1   38 1
     5    2    3 2
     6    2    4 1
     7    4    9 ar
     8    4    5 ar
     9    5    6 ar
    10    5   39 1
    11    6    7 ar
    12    6   40 1
    13    7    8 ar
    14    7   10 1
    15    8    9 ar
    16    8   41 1
    17    9   42 1
    18   10   11 1
    19   11   16 ar
    20   11   12 ar
    21   12   13 ar
    22   12   43 1
    23   13   14 ar
    24   13   44 1
    25   14   15 ar
    26   14   17 1
    27   15   16 ar
    28   15   45 1
    29   16   46 1
    30   17   21 1
    31   17   18 2
    32   18   19 1
    33   18   29 1
    34   19   20 2
    35   19   22 1
    36   20   21 1
    37   20   47 1
    38   22   27 ar
    39   22   23 ar
    40   23   24 ar
    41   23   48 1
    42   24   25 ar
    43   24   49 1
    44   25   26 ar
    45   25   50 1
    46   26   27 ar
    47   26   51 1
    48   27   28 1
    49   29   30 1
    50   29   52 1
    51   29   53 1
    52   30   31 2
    53   30   32 1
    54   32   33 2
    55   33   34 1
    56   33   35 1
    57   34   54 1
    58   34   55 1
    59   35   56 1
    60   35   57 1
@<TRIPOS>MOLECULE
CHEMBL595185
   90    93     0     0     0
SMALL
USER_CHARGES

@<TRIPOS>ATOM
      1 C1         -8.6836    3.9283    1.6703 C.3       1 <0>        -0.1487
      2 C2         -8.3996    3.7181    0.1816 C.3       1 <0>        -0.0623
      3 C3         -7.5241    4.8607   -0.3369 C.3       1 <0>        -0.1487
      4 C4         -7.6818    2.4074   -0.0126 C.ar      1 <0>        -0.0525
      5 C5         -6.4609    2.1905    0.5989 C.ar      1 <0>        -0.0947
      6 C6         -5.8026    0.9884    0.4208 C.ar      1 <0>        -0.0938
      7 C7         -6.3651    0.0025   -0.3687 C.ar      1 <0>        -0.1418
      8 C8         -7.5860    0.2190   -0.9793 C.ar      1 <0>        -0.1224
      9 C9         -8.2466    1.4199   -0.7976 C.ar      1 <0>        -0.0910
     10 C10        -8.1989   -0.8554   -1.8402 C.3       1 <0>         0.1122
     11 C11        -9.5560   -1.2604   -1.2613 C.3       1 <0>        -0.1734
     12 C12        -8.3892   -0.3231   -3.2619 C.3       1 <0>        -0.1744
     13 N1         -7.3106   -2.0250   -1.8701 N.4       1 <0>        -0.4966
     14 C13        -7.9080   -3.0723   -2.7092 C.3       1 <0>        -0.0717
     15 C14        -6.9828   -4.2905   -2.7404 C.3       1 <0>         0.0686
     16 H1         -5.9841   -3.9804   -3.0477 H         1 <0>         0.1778
     17 C15        -7.5263   -5.3184   -3.7349 C.3       1 <0>         0.1249
     18 H2         -7.4299   -4.9305   -4.7490 H         1 <0>         0.0950
     19 C16        -8.9986   -5.5940   -3.4313 C.3       1 <0>        -0.1062
     20 C17        -9.6777   -6.1325   -4.6643 C.ar      1 <0>        -0.0675
     21 C18       -10.6662   -5.3999   -5.2924 C.ar      1 <0>        -0.1383
     22 C19       -11.2859   -5.8987   -6.4227 C.ar      1 <0>        -0.0823
     23 C20       -10.9221   -7.1318   -6.9261 C.ar      1 <0>        -0.1354
     24 C21        -9.9311   -7.8702   -6.2957 C.ar      1 <0>         0.1278
     25 C22        -9.3093   -7.3691   -5.1610 C.ar      1 <0>        -0.1769
     26 O1         -9.5765   -9.0864   -6.7868 O.3       1 <0>        -0.3230
     27 C23        -8.1782   -9.3549   -6.9069 C.3       1 <0>         0.0622
     28 C24        -7.8829  -10.7741   -6.4149 C.3       1 <0>        -0.1330
     29 C25        -6.3780  -10.9343   -6.1852 C.3       1 <0>        -0.1419
     30 C26        -6.1108  -11.1851   -4.7019 C.3       1 <0>         0.1120
     31 N2         -4.6440  -11.1376   -4.4671 N.pl3     1 <0>        -0.7528
     32 C27        -4.1757   -9.9119   -3.9417 C.ar      1 <0>         0.2047
     33 C28        -2.8583   -9.8042   -3.5199 C.ar      1 <0>        -0.1340
     34 C29        -2.3926   -8.6088   -3.0048 C.ar      1 <0>        -0.0505
     35 C30        -3.2318   -7.5175   -2.9129 C.ar      1 <0>        -0.0866
     36 C31        -4.5580   -7.6164   -3.3343 C.ar      1 <0>        -0.1055
     37 C32        -5.0337   -8.8296   -3.8391 C.ar      1 <0>        -0.1614
     38 C33        -5.4471   -6.4376   -3.2762 C.2       1 <0>         0.5837
     39 O2         -5.0121   -5.3555   -2.9338 O.2       1 <0>        -0.5206
     40 N3         -6.7600   -6.5781   -3.6124 N.am      1 <0>        -0.7269
     41 C34        -0.9629   -8.4975   -2.5415 C.3       1 <0>         0.0983
     42 O3         -0.1408   -8.0740   -3.6309 O.3       1 <0>        -0.3847
     43 C35         1.2417   -7.9362   -3.2964 C.3       1 <0>         0.0291
     44 O4         -6.9205   -4.8748   -1.4378 O.3       1 <0>        -0.5326
     45 H3         -9.2028    4.8764    1.8108 H         1 <0>         0.0664
     46 H4         -9.3073    3.1143    2.0397 H         1 <0>         0.0571
     47 H5         -7.7430    3.9441    2.2209 H         1 <0>         0.0594
     48 H6         -9.3402    3.7023   -0.3690 H         1 <0>         0.0821
     49 H7         -6.5836    4.8765    0.2137 H         1 <0>         0.0594
     50 H8         -7.3218    4.7110   -1.3974 H         1 <0>         0.0572
     51 H9         -8.0433    5.8088   -0.1964 H         1 <0>         0.0664
     52 H10        -6.0215    2.9606    1.2156 H         1 <0>         0.1338
     53 H11        -4.8486    0.8193    0.8979 H         1 <0>         0.1352
     54 H12        -5.8503   -0.9365   -0.5085 H         1 <0>         0.1146
     55 H13        -9.2023    1.5876   -1.2717 H         1 <0>         0.1314
     56 H14       -10.2151   -0.3926   -1.2391 H         1 <0>         0.1067
     57 H15        -9.9993   -2.0375   -1.8839 H         1 <0>         0.0835
     58 H16        -9.4204   -1.6397   -0.2484 H         1 <0>         0.0843
     59 H17        -7.4224   -0.0345   -3.6743 H         1 <0>         0.0850
     60 H18        -8.8325   -1.1002   -3.8845 H         1 <0>         0.0851
     61 H19        -9.0483    0.5448   -3.2397 H         1 <0>         0.1066
     62 H20        -6.4156   -1.7580   -2.2518 H         1 <0>         0.4287
     63 H21        -8.8749   -3.3609   -2.2968 H         1 <0>         0.1368
     64 H22        -8.0436   -2.6931   -3.7221 H         1 <0>         0.1444
     65 H23        -9.0725   -6.3262   -2.6273 H         1 <0>         0.0942
     66 H24        -9.4852   -4.6682   -3.1241 H         1 <0>         0.0883
     67 H25       -10.9554   -4.4363   -4.8996 H         1 <0>         0.1235
     68 H26       -12.0568   -5.3227   -6.9130 H         1 <0>         0.1335
     69 H27       -11.4082   -7.5208   -7.8085 H         1 <0>         0.1357
     70 H28        -8.5398   -7.9437   -4.6669 H         1 <0>         0.1179
     71 H29        -7.8796   -9.2633   -7.9512 H         1 <0>         0.0763
     72 H30        -7.6182   -8.6385   -6.3058 H         1 <0>         0.0596
     73 H31        -8.4139  -10.9520   -5.4798 H         1 <0>         0.0766
     74 H32        -8.2146  -11.4941   -7.1630 H         1 <0>         0.0808
     75 H33        -6.0095  -11.7783   -6.7682 H         1 <0>         0.0763
     76 H34        -5.8642  -10.0253   -6.4980 H         1 <0>         0.0704
     77 H35        -6.6014  -10.4150   -4.1067 H         1 <0>         0.0777
     78 H36        -6.4942  -12.1663   -4.4221 H         1 <0>         0.0786
     79 H37        -4.0569  -11.8856   -4.6586 H         1 <0>         0.4143
     80 H38        -2.1967  -10.6546   -3.5937 H         1 <0>         0.1303
     81 H39        -2.8613   -6.5849   -2.5136 H         1 <0>         0.1336
     82 H40        -6.0647   -8.9227   -4.1471 H         1 <0>         0.1243
     83 H41        -7.1656   -7.4467   -3.7601 H         1 <0>         0.4113
     84 H42        -0.8986   -7.7690   -1.7332 H         1 <0>         0.0624
     85 H43        -0.6203   -9.4684   -2.1837 H         1 <0>         0.0624
     86 H44         1.3517   -7.1961   -2.5038 H         1 <0>         0.0439
     87 H45         1.6301   -8.8955   -2.9542 H         1 <0>         0.0446
     88 H46         1.7978   -7.6120   -4.1760 H         1 <0>         0.0900
     89 H47        -7.7755   -5.1744   -1.0998 H         1 <0>         0.3738
     90 H48        -7.1851   -2.3761   -0.9325 H         1 <0>         0.4315
@<TRIPOS>BOND
     1    1    2 1
     2    1   45 1
     3    1   46 1
     4    1   47 1
     5    2    3 1
     6    2    4 1
     7    2   48 1
     8    3   49 1
     9    3   50 1
    10    3   51 1
    11    4    9 ar
    12    4    5 ar
    13    5    6 ar
    14    5   52 1
    15    6    7 ar
    16    6   53 1
    17    7    8 ar
    18    7   54 1
    19    8    9 ar
    20    8   10 1
    21    9   55 1
    22   10   11 1
    23   10   12 1
    24   10   13 1
    25   11   56 1
    26   11   57 1
    27   11   58 1
    28   12   59 1
    29   12   60 1
    30   12   61 1
    31   13   14 1
    32   13   62 1
    33   13   90 1
    34   14   15 1
    35   14   63 1
    36   14   64 1
    37   15   16 1
    38   15   17 1
    39   15   44 1
    40   17   18 1
    41   17   40 1
    42   17   19 1
    43   19   20 1
    44   19   65 1
    45   19   66 1
    46   20   25 ar
    47   20   21 ar
    48   21   22 ar
    49   21   67 1
    50   22   23 ar
    51   22   68 1
    52   23   24 ar
    53   23   69 1
    54   24   25 ar
    55   24   26 1
    56   25   70 1
    57   26   27 1
    58   27   28 1
    59   27   71 1
    60   27   72 1
    61   28   29 1
    62   28   73 1
    63   28   74 1
    64   29   30 1
    65   29   75 1
    66   29   76 1
    67   30   31 1
    68   30   77 1
    69   30   78 1
    70   31   32 1
    71   31   79 1
    72   32   37 ar
    73   32   33 ar
    74   33   34 ar
    75   33   80 1
    76   34   35 ar
    77   34   41 1
    78   35   36 ar
    79   35   81 1
    80   36   37 ar
    81   36   38 1
    82   37   82 1
    83   38   39 2
    84   38   40 am
    85   40   83 1
    86   41   42 1
    87   41   84 1
    88   41   85 1
    89   42   43 1
    90   43   86 1
    91   43   87 1
    92   43   88 1
    93   44   89 1
@<TRIPOS>MOLECULE
CHEMBL595246
   94    98     0     0     0
SMALL
USER_CHARGES

@<TRIPOS>ATOM
      1 C1          9.0407    0.2876    3.7924 C.3       1 <0>        -0.1423
      2 C2          8.7925    1.7941    3.8909 C.3       1 <0>        -0.0333
      3 C3          7.2966    2.0531    4.0813 C.3       1 <0>        -0.1391
      4 C4          9.5642    2.3611    5.0841 C.3       1 <0>        -0.1514
      5 C5          9.2612    2.4643    2.6251 C.ar      1 <0>        -0.0455
      6 C6         10.1750    3.4998    2.6888 C.ar      1 <0>        -0.1007
      7 C7         10.6049    4.1145    1.5279 C.ar      1 <0>        -0.0976
      8 C8         10.1215    3.6934    0.3029 C.ar      1 <0>        -0.1002
      9 C9          9.2087    2.6576    0.2392 C.ar      1 <0>        -0.1055
     10 C10         8.7819    2.0399    1.4002 C.ar      1 <0>        -0.1302
     11 C11         8.6814    2.1990   -1.0960 C.3       1 <0>         0.0625
     12 C12         9.7188    1.4401   -1.9403 C.3       1 <0>        -0.1263
     13 C13         9.1611    2.1931   -3.1596 C.3       1 <0>        -0.1565
     14 C14         8.7143    3.2902   -2.1790 C.3       1 <0>        -0.1331
     15 N1          7.3874    1.5113   -0.9926 N.4       1 <0>        -0.4796
     16 C15         6.3657    2.4580   -0.5260 C.3       1 <0>        -0.0675
     17 C16         5.0466    1.7156   -0.3027 C.3       1 <0>         0.0690
     18 H1          4.7757    1.1752   -1.2098 H         1 <0>         0.1788
     19 C17         3.9463    2.7223    0.0390 C.3       1 <0>         0.1260
     20 H2          3.7216    3.3283   -0.8388 H         1 <0>         0.0950
     21 C18         4.4173    3.6270    1.1772 C.3       1 <0>        -0.1067
     22 C19         3.6372    4.9163    1.1551 C.ar      1 <0>        -0.0658
     23 C20         4.2722    6.1111    0.8764 C.ar      1 <0>        -0.1373
     24 C21         3.5520    7.2907    0.8578 C.ar      1 <0>        -0.0823
     25 C22         2.1966    7.2799    1.1208 C.ar      1 <0>        -0.1354
     26 C23         1.5572    6.0816    1.4030 C.ar      1 <0>         0.1275
     27 C24         2.2806    4.8976    1.4217 C.ar      1 <0>        -0.1768
     28 O1          0.2246    6.0706    1.6679 O.3       1 <0>        -0.3230
     29 C25        -0.5598    5.0752    1.0079 C.3       1 <0>         0.0622
     30 C26        -1.5502    4.4597    1.9998 C.3       1 <0>        -0.1330
     31 C27        -2.1169    3.1615    1.4196 C.3       1 <0>        -0.1419
     32 C28        -1.6875    1.9817    2.2904 C.3       1 <0>         0.1121
     33 N2         -2.0735    0.7196    1.6071 N.pl3     1 <0>        -0.7528
     34 C29        -1.0186    0.0849    0.9127 C.ar      1 <0>         0.2048
     35 C30        -1.2106   -1.1825    0.3819 C.ar      1 <0>        -0.1352
     36 C31        -0.1838   -1.8101   -0.2986 C.ar      1 <0>        -0.0505
     37 C32         1.0325   -1.1786   -0.4581 C.ar      1 <0>        -0.0855
     38 C33         1.2349    0.0957    0.0724 C.ar      1 <0>        -0.1052
     39 C34         0.2027    0.7232    0.7751 C.ar      1 <0>        -0.1613
     40 C35         2.5222    0.7914   -0.1332 C.2       1 <0>         0.5837
     41 O2          3.3861    0.2937   -0.8284 O.2       1 <0>        -0.5203
     42 N3          2.7284    1.9982    0.4649 N.am      1 <0>        -0.7266
     43 C36        -0.3938   -3.1895   -0.8680 C.3       1 <0>         0.0984
     44 O3         -0.7824   -3.0847   -2.2392 O.3       1 <0>        -0.3847
     45 C37        -1.0078   -4.3434   -2.8772 C.3       1 <0>         0.0291
     46 O4          5.1974    0.7904    0.7758 O.3       1 <0>        -0.5317
     47 H3          8.4223   -0.1314    2.9985 H         1 <0>         0.0539
     48 H4         10.0919    0.1064    3.5680 H         1 <0>         0.0596
     49 H5          8.7847   -0.1856    4.7404 H         1 <0>         0.0670
     50 H6          6.9763    1.6449    5.0399 H         1 <0>         0.0685
     51 H7          7.1085    3.1266    4.0624 H         1 <0>         0.0596
     52 H8          6.7394    1.5724    3.2772 H         1 <0>         0.0489
     53 H9         10.6346    2.2551    4.9081 H         1 <0>         0.0623
     54 H10         9.3190    3.4160    5.2073 H         1 <0>         0.0618
     55 H11         9.2887    1.8163    5.9871 H         1 <0>         0.0663
     56 H12        10.5526    3.8287    3.6457 H         1 <0>         0.1381
     57 H13        11.3182    4.9239    1.5777 H         1 <0>         0.1358
     58 H14        10.4569    4.1742   -0.6041 H         1 <0>         0.1332
     59 H15         8.0715    1.2280    1.3501 H         1 <0>         0.1152
     60 H16        10.7502    1.6993   -1.7013 H         1 <0>         0.1248
     61 H17         9.5492    0.3640   -1.9766 H         1 <0>         0.0937
     62 H18         9.9297    2.5201   -3.8599 H         1 <0>         0.1014
     63 H19         8.3326    1.6803   -3.6481 H         1 <0>         0.0928
     64 H20         7.7338    3.7077   -2.4081 H         1 <0>         0.0925
     65 H21         9.4710    4.0552   -2.0053 H         1 <0>         0.1265
     66 H22         7.1244    1.1517   -1.8979 H         1 <0>         0.4302
     67 H23         6.6907    2.9110    0.4106 H         1 <0>         0.1367
     68 H24         6.2222    3.2363   -1.2756 H         1 <0>         0.1420
     69 H25         4.2586    3.1232    2.1306 H         1 <0>         0.0931
     70 H26         5.4786    3.8429    1.0537 H         1 <0>         0.0889
     71 H27         5.3328    6.1236    0.6732 H         1 <0>         0.1230
     72 H28         4.0506    8.2230    0.6373 H         1 <0>         0.1332
     73 H29         1.6355    8.2026    1.1073 H         1 <0>         0.1355
     74 H30         1.7853    3.9640    1.6443 H         1 <0>         0.1177
     75 H31        -1.1080    5.5326    0.1843 H         1 <0>         0.0762
     76 H32         0.0955    4.2960    0.6187 H         1 <0>         0.0595
     77 H33        -1.0384    4.2451    2.9380 H         1 <0>         0.0765
     78 H34        -2.3641    5.1613    2.1828 H         1 <0>         0.0807
     79 H35        -3.2051    3.2187    1.3967 H         1 <0>         0.0762
     80 H36        -1.7395    3.0213    0.4067 H         1 <0>         0.0704
     81 H37        -0.6069    2.0055    2.4313 H         1 <0>         0.0777
     82 H38        -2.1860    2.0409    3.2579 H         1 <0>         0.0785
     83 H39        -2.9744    0.3613    1.6353 H         1 <0>         0.4142
     84 H40        -2.1622   -1.6791    0.5007 H         1 <0>         0.1302
     85 H41         1.8297   -1.6720   -0.9943 H         1 <0>         0.1336
     86 H42         0.3568    1.7003    1.2088 H         1 <0>         0.1242
     87 H43         2.1179    2.3578    1.1274 H         1 <0>         0.4112
     88 H44         0.5337   -3.7575   -0.7956 H         1 <0>         0.0628
     89 H45        -1.1767   -3.6991   -0.3064 H         1 <0>         0.0620
     90 H46        -1.2989   -4.1779   -3.9145 H         1 <0>         0.0899
     91 H47        -0.0931   -4.9353   -2.8465 H         1 <0>         0.0439
     92 H48        -1.8035   -4.8769   -2.3573 H         1 <0>         0.0446
     93 H49         5.4388    1.2025    1.6167 H         1 <0>         0.3712
     94 H50         7.4635    0.7483   -0.3367 H         1 <0>         0.4305
@<TRIPOS>BOND
     1    1    2 1
     2    1   47 1
     3    1   48 1
     4    1   49 1
     5    2    3 1
     6    2    4 1
     7    2    5 1
     8    3   50 1
     9    3   51 1
    10    3   52 1
    11    4   53 1
    12    4   54 1
    13    4   55 1
    14    5   10 ar
    15    5    6 ar
    16    6    7 ar
    17    6   56 1
    18    7    8 ar
    19    7   57 1
    20    8    9 ar
    21    8   58 1
    22    9   10 ar
    23    9   11 1
    24   10   59 1
    25   11   14 1
    26   11   12 1
    27   11   15 1
    28   12   13 1
    29   12   60 1
    30   12   61 1
    31   13   14 1
    32   13   62 1
    33   13   63 1
    34   14   64 1
    35   14   65 1
    36   15   16 1
    37   15   66 1
    38   15   94 1
    39   16   17 1
    40   16   67 1
    41   16   68 1
    42   17   18 1
    43   17   19 1
    44   17   46 1
    45   19   20 1
    46   19   42 1
    47   19   21 1
    48   21   22 1
    49   21   69 1
    50   21   70 1
    51   22   27 ar
    52   22   23 ar
    53   23   24 ar
    54   23   71 1
    55   24   25 ar
    56   24   72 1
    57   25   26 ar
    58   25   73 1
    59   26   27 ar
    60   26   28 1
    61   27   74 1
    62   28   29 1
    63   29   30 1
    64   29   75 1
    65   29   76 1
    66   30   31 1
    67   30   77 1
    68   30   78 1
    69   31   32 1
    70   31   79 1
    71   31   80 1
    72   32   33 1
    73   32   81 1
    74   32   82 1
    75   33   34 1
    76   33   83 1
    77   34   39 ar
    78   34   35 ar
    79   35   36 ar
    80   35   84 1
    81   36   37 ar
    82   36   43 1
    83   37   38 ar
    84   37   85 1
    85   38   39 ar
    86   38   40 1
    87   39   86 1
    88   40   41 2
    89   40   42 am
    90   42   87 1
    91   43   44 1
    92   43   88 1
    93   43   89 1
    94   44   45 1
    95   45   90 1
    96   45   91 1
    97   45   92 1
    98   46   93 1
@<TRIPOS>MOLECULE
CHEMBL473854
   77    81     0     0     0
SMALL
USER_CHARGES

@<TRIPOS>ATOM
      1 C1         -0.0187    1.5258    0.0104 C.3       1 <0>        -0.1593
      2 C2          0.0021   -0.0041    0.0020 C.3       1 <0>         0.1848
      3 H1         -1.0205   -0.3814    0.0098 H         1 <0>         0.1007
      4 C3          0.7309   -0.5033    1.2229 C.ar      1 <0>        -0.0960
      5 C4          2.1131   -0.5138    1.2466 C.ar      1 <0>        -0.1153
      6 C5          2.7816   -0.9717    2.3665 C.ar      1 <0>        -0.1143
      7 C6          2.0681   -1.4187    3.4629 C.ar      1 <0>        -0.1162
      8 C7          0.6860   -1.4074    3.4395 C.ar      1 <0>        -0.1132
      9 C8          0.0174   -0.9454    2.3212 C.ar      1 <0>        -0.1057
     10 N1          0.6878   -0.4765   -1.2033 N.am      1 <0>        -0.7174
     11 C9          0.0062   -0.6081   -2.3585 C.2       1 <0>         0.5603
     12 O1         -1.1774   -0.3349   -2.4004 O.2       1 <0>        -0.5213
     13 C10         0.6983   -1.0850   -3.5752 C.ar      1 <0>        -0.1100
     14 C11         2.0524   -1.4027   -3.5233 C.ar      1 <0>        -0.0542
     15 C12         2.7001   -1.8508   -4.6723 C.ar      1 <0>        -0.1184
     16 C13         1.9885   -1.9758   -5.8651 C.ar      1 <0>        -0.0944
     17 C14         0.6366   -1.6572   -5.9146 C.ar      1 <0>         0.1212
     18 C15        -0.0116   -1.2209   -4.7736 C.ar      1 <0>        -0.0634
     19 C16        -1.4812   -0.8827   -4.7852 C.3       1 <0>        -0.0920
     20 C17        -1.9514   -0.6735   -6.2267 C.3       1 <0>        -0.1658
     21 C18        -1.4435   -1.8473   -7.0738 C.3       1 <0>         0.0573
     22 O2         -0.0137   -1.7896   -7.1007 O.3       1 <0>        -0.3117
     23 C19         4.1382   -2.1925   -4.6274 C.2       1 <0>         0.5694
     24 O3          4.7568   -2.0826   -3.5869 O.2       1 <0>        -0.5018
     25 N2          4.7629   -2.6259   -5.7402 N.am      1 <0>        -0.7241
     26 C20         6.1875   -2.9644   -5.6958 C.3       1 <0>         0.1284
     27 H2          6.6994   -2.2920   -5.0073 H         1 <0>         0.1107
     28 C21         6.3540   -4.4081   -5.2171 C.3       1 <0>        -0.1027
     29 C22         5.8720   -4.5242   -3.7940 C.ar      1 <0>        -0.0786
     30 C23         6.7505   -4.3143   -2.7475 C.ar      1 <0>        -0.1063
     31 C24         6.3084   -4.4208   -1.4421 C.ar      1 <0>        -0.1107
     32 C25         4.9877   -4.7367   -1.1832 C.ar      1 <0>        -0.1094
     33 C26         4.1091   -4.9456   -2.2297 C.ar      1 <0>        -0.1090
     34 C27         4.5502   -4.8349   -3.5351 C.ar      1 <0>        -0.1059
     35 C28         6.7904   -2.8181   -7.0944 C.3       1 <0>         0.0738
     36 H3          6.5937   -1.8146   -7.4717 H         1 <0>         0.1336
     37 C29         8.3012   -3.0500   -7.0253 C.3       1 <0>        -0.0408
     38 N3          8.8968   -2.7925   -8.3432 N.4       1 <0>        -0.4746
     39 C30        10.3473   -3.0152   -8.2770 C.3       1 <0>        -0.0864
     40 C31        11.2588   -1.8118   -8.5260 C.3       1 <0>        -0.1540
     41 C32        11.1383   -2.9119   -9.5826 C.3       1 <0>        -0.1531
     42 O4          6.2003   -3.7805   -7.9705 O.3       1 <0>        -0.5493
     43 H4          1.0039    1.9031    0.0027 H         1 <0>         0.0595
     44 H5         -0.5459    1.8868   -0.8726 H         1 <0>         0.0665
     45 H6         -0.5289    1.8773    0.9072 H         1 <0>         0.0718
     46 H7          2.6705   -0.1645    0.3901 H         1 <0>         0.1174
     47 H8          3.8614   -0.9806    2.3848 H         1 <0>         0.1235
     48 H9          2.5905   -1.7771    4.3376 H         1 <0>         0.1244
     49 H10         0.1286   -1.7569    4.2959 H         1 <0>         0.1265
     50 H11        -1.0624   -0.9331    2.3044 H         1 <0>         0.1259
     51 H12         1.6324   -0.6946   -1.1699 H         1 <0>         0.3998
     52 H13         2.5983   -1.3020   -2.5970 H         1 <0>         0.1394
     53 H14         2.4912   -2.3220   -6.7561 H         1 <0>         0.1357
     54 H15        -2.0449   -1.6998   -4.3349 H         1 <0>         0.0901
     55 H16        -1.6478    0.0301   -4.2133 H         1 <0>         0.1193
     56 H17        -3.0405   -0.6425   -6.2571 H         1 <0>         0.0921
     57 H18        -1.5457    0.2614   -6.6134 H         1 <0>         0.0785
     58 H19        -1.7724   -2.7881   -6.6325 H         1 <0>         0.0701
     59 H20        -1.8310   -1.7621   -8.0891 H         1 <0>         0.1135
     60 H21         4.2692   -2.7136   -6.5706 H         1 <0>         0.4071
     61 H22         5.7693   -5.0717   -5.8540 H         1 <0>         0.0825
     62 H23         7.4060   -4.6889   -5.2685 H         1 <0>         0.0797
     63 H24         7.7823   -4.0675   -2.9497 H         1 <0>         0.1118
     64 H25         6.9948   -4.2576   -0.6244 H         1 <0>         0.1194
     65 H26         4.6425   -4.8206   -0.1633 H         1 <0>         0.1198
     66 H27         3.0774   -5.1927   -2.0274 H         1 <0>         0.1174
     67 H28         3.8629   -4.9945   -4.3527 H         1 <0>         0.1104
     68 H29         8.7392   -2.3746   -6.2904 H         1 <0>         0.1476
     69 H30         8.4974   -4.0816   -6.7332 H         1 <0>         0.1415
     70 H31         8.4913   -3.4177   -9.0235 H         1 <0>         0.4334
     71 H32        10.6767   -3.7537   -7.5461 H         1 <0>         0.1780
     72 H33        10.7822   -0.8550   -8.7391 H         1 <0>         0.1218
     73 H34        12.1881   -1.7584   -7.9588 H         1 <0>         0.1345
     74 H35        11.9882   -3.5822   -9.7105 H         1 <0>         0.1349
     75 H36        10.5823   -2.6787  -10.4907 H         1 <0>         0.1222
     76 H37         6.3360   -4.6977   -7.6958 H         1 <0>         0.3922
     77 H38         8.7151   -1.8376   -8.6137 H         1 <0>         0.4267
@<TRIPOS>BOND
     1    1    2 1
     2    1   43 1
     3    1   44 1
     4    1   45 1
     5    2    3 1
     6    2    4 1
     7    2   10 1
     8    4    9 ar
     9    4    5 ar
    10    5    6 ar
    11    5   46 1
    12    6    7 ar
    13    6   47 1
    14    7    8 ar
    15    7   48 1
    16    8    9 ar
    17    8   49 1
    18    9   50 1
    19   10   11 am
    20   10   51 1
    21   11   12 2
    22   11   13 1
    23   13   18 ar
    24   13   14 ar
    25   14   15 ar
    26   14   52 1
    27   15   16 ar
    28   15   23 1
    29   16   17 ar
    30   16   53 1
    31   17   22 1
    32   17   18 ar
    33   18   19 1
    34   19   20 1
    35   19   54 1
    36   19   55 1
    37   20   21 1
    38   20   56 1
    39   20   57 1
    40   21   22 1
    41   21   58 1
    42   21   59 1
    43   23   24 2
    44   23   25 am
    45   25   26 1
    46   25   60 1
    47   26   27 1
    48   26   28 1
    49   26   35 1
    50   28   29 1
    51   28   61 1
    52   28   62 1
    53   29   34 ar
    54   29   30 ar
    55   30   31 ar
    56   30   63 1
    57   31   32 ar
    58   31   64 1
    59   32   33 ar
    60   32   65 1
    61   33   34 ar
    62   33   66 1
    63   34   67 1
    64   35   36 1
    65   35   37 1
    66   35   42 1
    67   37   38 1
    68   37   68 1
    69   37   69 1
    70   38   39 1
    71   38   70 1
    72   38   77 1
    73   39   41 1
    74   39   40 1
    75   39   71 1
    76   40   41 1
    77   40   72 1
    78   40   73 1
    79   41   74 1
    80   41   75 1
    81   42   76 1
@<TRIPOS>MOLECULE
CHEMBL565550
   83    86     0     0     0
SMALL
USER_CHARGES

@<TRIPOS>ATOM
      1 C1          0.7178    0.8738    0.4505 C.3       1 <0>        -0.1806
      2 C2          0.5011   -0.5994    0.2184 C.2       1 <0>         0.5141
      3 O1          0.4142   -1.3557    1.1625 O.2       1 <0>        -0.5310
      4 N1          0.4040   -1.0764   -1.0384 N.am      1 <0>        -0.7322
      5 C3          0.1934   -2.5085   -1.2640 C.3       1 <0>         0.1331
      6 H1          0.1409   -2.7037   -2.3351 H         1 <0>         0.1036
      7 C4          1.3564   -3.2968   -0.6584 C.3       1 <0>        -0.0988
      8 C5          2.6282   -2.9602   -1.3934 C.ar      1 <0>        -0.0278
      9 C6          3.0012   -3.6975   -2.5013 C.ar      1 <0>        -0.1649
     10 C7          4.1698   -3.3894   -3.1773 C.ar      1 <0>         0.1396
     11 C8          4.9642   -2.3422   -2.7433 C.ar      1 <0>        -0.1927
     12 C9          4.5895   -1.6042   -1.6339 C.ar      1 <0>         0.1388
     13 C10         3.4178   -1.9108   -0.9626 C.ar      1 <0>        -0.1579
     14 F1          5.3639   -0.5819   -1.2092 F         1 <0>        -0.1260
     15 F2          4.5346   -4.1108   -4.2597 F         1 <0>        -0.1257
     16 C11        -1.1161   -2.9420   -0.6020 C.3       1 <0>         0.0696
     17 H2         -1.0636   -2.7468    0.4691 H         1 <0>         0.1464
     18 C12        -2.2791   -2.1537   -1.2077 C.3       1 <0>        -0.0503
     19 N2         -3.5188   -2.4818   -0.4911 N.4       1 <0>        -0.4900
     20 C13        -4.6410   -1.7500   -1.0936 C.3       1 <0>         0.1204
     21 C14        -5.9353   -2.0995   -0.3539 C.3       1 <0>        -0.1348
     22 C15        -5.8167   -1.6519    1.1056 C.3       1 <0>        -0.1375
     23 C16        -5.5287   -0.1496    1.1515 C.3       1 <0>         0.2980
     24 H3         -5.4294    0.1697    2.1890 H         1 <0>         0.1203
     25 N3         -4.2807    0.1331    0.4311 N.3       1 <0>        -0.6980
     26 C17        -4.3871   -0.2448   -0.9839 C.3       1 <0>         0.0361
     27 N4         -6.6321    0.5785    0.5202 N.pl3     1 <0>        -0.7614
     28 C18        -7.1380    1.7355    1.1178 C.ar      1 <0>         0.1485
     29 C19        -6.5162    2.2823    2.2381 C.ar      1 <0>        -0.1520
     30 C20        -7.0551    3.4301    2.7951 C.ar      1 <0>        -0.1215
     31 C21        -8.1833    3.9916    2.2259 C.ar      1 <0>         0.0547
     32 N5         -8.7485    3.4495    1.1652 N.ar      1 <0>        -0.4440
     33 C22        -8.2650    2.3610    0.6004 C.ar      1 <0>         0.0411
     34 C23        -4.7707   -2.1339   -2.5451 C.ar      1 <0>        -0.1247
     35 C24        -4.3846   -3.3936   -2.9641 C.ar      1 <0>        -0.1368
     36 C25        -4.5036   -3.7457   -4.2953 C.ar      1 <0>        -0.0947
     37 C26        -5.0091   -2.8384   -5.2079 C.ar      1 <0>        -0.0971
     38 C27        -5.3959   -1.5794   -4.7888 C.ar      1 <0>        -0.0440
     39 C28        -5.2809   -1.2287   -3.4564 C.ar      1 <0>        -0.0905
     40 C29        -5.9465   -0.5903   -5.7836 C.3       1 <0>        -0.0347
     41 C30        -5.9709   -1.2262   -7.1750 C.3       1 <0>        -0.1514
     42 C31        -7.3682   -0.1965   -5.3778 C.3       1 <0>        -0.1420
     43 C32        -5.0594    0.6561   -5.8079 C.3       1 <0>        -0.1405
     44 O2         -1.3216   -4.3389   -0.8221 O.3       1 <0>        -0.5433
     45 H4          1.7871    1.0830    0.4833 H         1 <0>         0.1008
     46 H5          0.2614    1.4405   -0.3610 H         1 <0>         0.0818
     47 H6          0.2618    1.1634    1.3972 H         1 <0>         0.0998
     48 H7          0.4736   -0.4715   -1.7935 H         1 <0>         0.4105
     49 H8          1.4646   -3.0339    0.3939 H         1 <0>         0.1084
     50 H9          1.1570   -4.3647   -0.7474 H         1 <0>         0.1010
     51 H10         2.3812   -4.5144   -2.8398 H         1 <0>         0.1428
     52 H11         5.8760   -2.1015   -3.2697 H         1 <0>         0.1521
     53 H12         3.1229   -1.3324   -0.0996 H         1 <0>         0.1360
     54 H13        -2.0797   -1.0858   -1.1186 H         1 <0>         0.1420
     55 H14        -2.3873   -2.4166   -2.2599 H         1 <0>         0.1368
     56 H15        -3.6915   -3.4739   -0.5546 H         1 <0>         0.4246
     57 H16        -6.7740   -1.5869   -0.8251 H         1 <0>         0.1088
     58 H17        -6.0974   -3.1767   -0.3925 H         1 <0>         0.0987
     59 H18        -6.7511   -1.8594    1.6270 H         1 <0>         0.1061
     60 H19        -5.0025   -2.1934    1.5873 H         1 <0>         0.0817
     61 H20        -4.0191    1.1028    0.5277 H         1 <0>         0.3713
     62 H21        -3.4587    0.0053   -1.4975 H         1 <0>         0.1015
     63 H22        -5.2136    0.2974   -1.4435 H         1 <0>         0.0852
     64 H23        -7.0115    0.2572   -0.3127 H         1 <0>         0.3963
     65 H24        -5.6358    1.8223    2.6621 H         1 <0>         0.1315
     66 H25        -6.5995    3.8814    3.6641 H         1 <0>         0.1389
     67 H26        -8.6077    4.8865    2.6566 H         1 <0>         0.1581
     68 H27        -8.7529    1.9487   -0.2705 H         1 <0>         0.1491
     69 H28        -3.9897   -4.1023   -2.2513 H         1 <0>         0.1177
     70 H29        -4.2013   -4.7295   -4.6228 H         1 <0>         0.1366
     71 H30        -5.1014   -3.1133   -6.2482 H         1 <0>         0.1401
     72 H31        -5.5867   -0.2462   -3.1283 H         1 <0>         0.1305
     73 H32        -6.6029   -2.1141   -7.1576 H         1 <0>         0.0620
     74 H33        -6.3692   -0.5107   -7.8945 H         1 <0>         0.0675
     75 H34        -4.9581   -1.5067   -7.4641 H         1 <0>         0.0613
     76 H35        -7.3508    0.2565   -4.3865 H         1 <0>         0.0543
     77 H36        -7.7664    0.5189   -6.0973 H         1 <0>         0.0680
     78 H37        -8.0002   -1.0844   -5.3605 H         1 <0>         0.0598
     79 H38        -4.0466    0.3755   -6.0970 H         1 <0>         0.0584
     80 H39        -5.4576    1.3715   -6.5274 H         1 <0>         0.0678
     81 H40        -5.0420    1.1091   -4.8167 H         1 <0>         0.0538
     82 H41        -1.3783   -4.5858   -1.7553 H         1 <0>         0.3855
     83 H42        -3.4269   -2.2178    0.4784 H         1 <0>         0.4353
@<TRIPOS>BOND
     1    1    2 1
     2    1   45 1
     3    1   46 1
     4    1   47 1
     5    2    3 2
     6    2    4 am
     7    4    5 1
     8    4   48 1
     9    5    6 1
    10    5    7 1
    11    5   16 1
    12    7    8 1
    13    7   49 1
    14    7   50 1
    15    8   13 ar
    16    8    9 ar
    17    9   10 ar
    18    9   51 1
    19   10   11 ar
    20   10   15 1
    21   11   12 ar
    22   11   52 1
    23   12   13 ar
    24   12   14 1
    25   13   53 1
    26   16   17 1
    27   16   18 1
    28   16   44 1
    29   18   19 1
    30   18   54 1
    31   18   55 1
    32   19   20 1
    33   19   56 1
    34   19   83 1
    35   20   26 1
    36   20   21 1
    37   20   34 1
    38   21   22 1
    39   21   57 1
    40   21   58 1
    41   22   23 1
    42   22   59 1
    43   22   60 1
    44   23   24 1
    45   23   25 1
    46   23   27 1
    47   25   26 1
    48   25   61 1
    49   26   62 1
    50   26   63 1
    51   27   28 1
    52   27   64 1
    53   28   33 ar
    54   28   29 ar
    55   29   30 ar
    56   29   65 1
    57   30   31 ar
    58   30   66 1
    59   31   32 ar
    60   31   67 1
    61   32   33 ar
    62   33   68 1
    63   34   39 ar
    64   34   35 ar
    65   35   36 ar
    66   35   69 1
    67   36   37 ar
    68   36   70 1
    69   37   38 ar
    70   37   71 1
    71   38   39 ar
    72   38   40 1
    73   39   72 1
    74   40   41 1
    75   40   42 1
    76   40   43 1
    77   41   73 1
    78   41   74 1
    79   41   75 1
    80   42   76 1
    81   42   77 1
    82   42   78 1
    83   43   79 1
    84   43   80 1
    85   43   81 1
    86   44   82 1
@<TRIPOS>MOLECULE
CHEMBL565550__1
   83    86     0     0     0
SMALL
USER_CHARGES

@<TRIPOS>ATOM
      1 C1         -4.3357   -3.5599    4.7892 C.3       1 <0>        -0.1817
      2 C2         -3.2097   -3.3184    3.8172 C.2       1 <0>         0.5069
      3 O1         -2.5478   -4.2505    3.4122 O.2       1 <0>        -0.5283
      4 N1         -2.9381   -2.0666    3.3981 N.am      1 <0>        -0.7265
      5 C3         -1.9207   -1.8436    2.3678 C.3       1 <0>         0.1271
      6 H1         -1.8363   -0.7759    2.1656 H         1 <0>         0.0935
      7 C4         -0.5733   -2.3780    2.8576 C.3       1 <0>        -0.1017
      8 C5         -0.1173   -1.5750    4.0486 C.ar      1 <0>        -0.0233
      9 C6          0.6539   -0.4431    3.8639 C.ar      1 <0>        -0.1654
     10 C7          1.0738    0.2953    4.9575 C.ar      1 <0>         0.1388
     11 C8          0.7205   -0.1004    6.2360 C.ar      1 <0>        -0.1952
     12 C9         -0.0524   -1.2340    6.4197 C.ar      1 <0>         0.1364
     13 C10        -0.4755   -1.9678    5.3243 C.ar      1 <0>        -0.1589
     14 F1         -0.3981   -1.6213    7.6670 F         1 <0>        -0.1278
     15 F2          1.8285    1.4012    4.7767 F         1 <0>        -0.1267
     16 C11        -2.3240   -2.5752    1.0860 C.3       1 <0>         0.0955
     17 H2         -2.3266   -3.6501    1.2666 H         1 <0>         0.1301
     18 C12        -3.7235   -2.1260    0.6613 C.3       1 <0>         0.0116
     19 N2         -4.1132   -2.8330   -0.5661 N.3       1 <0>        -0.6781
     20 C13        -5.4018   -2.3402   -1.0709 C.3       1 <0>         0.1453
     21 C14        -5.8315   -3.1771   -2.2792 C.3       1 <0>        -0.1166
     22 C15        -6.0449   -4.6267   -1.8338 C.3       1 <0>        -0.1389
     23 C16        -7.0796   -4.6612   -0.7070 C.3       1 <0>         0.2632
     24 H3         -7.2341   -5.6919   -0.3876 H         1 <0>         0.1550
     25 N3         -6.5987   -3.8647    0.4283 N.4       1 <0>        -0.5173
     26 C17        -6.4603   -2.4594    0.0277 C.3       1 <0>        -0.0015
     27 N4         -8.3459   -4.1054   -1.1904 N.pl3     1 <0>        -0.7349
     28 C18        -9.5503   -4.7460   -0.8889 C.ar      1 <0>         0.1226
     29 C19        -9.5732   -5.8373   -0.0233 C.ar      1 <0>        -0.1485
     30 C20       -10.7915   -6.4390    0.2447 C.ar      1 <0>        -0.1213
     31 C21       -11.9360   -5.9413   -0.3505 C.ar      1 <0>         0.0734
     32 N5        -11.8808   -4.9063   -1.1656 N.ar      1 <0>        -0.4410
     33 C22       -10.7434   -4.3007   -1.4433 C.ar      1 <0>         0.0637
     34 C23        -5.2627   -0.8968   -1.4812 C.ar      1 <0>        -0.1225
     35 C24        -6.3235   -0.0257   -1.3154 C.ar      1 <0>        -0.1260
     36 C25        -6.1960    1.2980   -1.6917 C.ar      1 <0>        -0.1037
     37 C26        -5.0075    1.7513   -2.2335 C.ar      1 <0>        -0.1073
     38 C27        -3.9467    0.8808   -2.3984 C.ar      1 <0>        -0.0495
     39 C28        -4.0729   -0.4425   -2.0180 C.ar      1 <0>        -0.1060
     40 C29        -2.6514    1.3747   -2.9893 C.3       1 <0>        -0.0328
     41 C30        -2.7331    2.8873   -3.2046 C.3       1 <0>        -0.1501
     42 C31        -1.5005    1.0572   -2.0326 C.3       1 <0>        -0.1408
     43 C32        -2.4056    0.6812   -4.3308 C.3       1 <0>        -0.1405
     44 O2         -1.3901   -2.2687    0.0487 O.3       1 <0>        -0.5441
     45 H4         -3.9402   -3.5847    5.8046 H         1 <0>         0.1013
     46 H5         -5.0678   -2.7568    4.7040 H         1 <0>         0.0775
     47 H6         -4.8137   -4.5128    4.5621 H         1 <0>         0.0947
     48 H7         -3.4163   -1.3132    3.7785 H         1 <0>         0.4059
     49 H8         -0.6798   -3.4242    3.1441 H         1 <0>         0.1096
     50 H9          0.1633   -2.2932    2.0587 H         1 <0>         0.0972
     51 H10         0.9295   -0.1346    2.8663 H         1 <0>         0.1425
     52 H11         1.0478    0.4746    7.0895 H         1 <0>         0.1509
     53 H12        -1.0822   -2.8498    5.4672 H         1 <0>         0.1352
     54 H13        -4.4351   -2.3557    1.4544 H         1 <0>         0.0746
     55 H14        -3.7199   -1.0519    0.4763 H         1 <0>         0.0568
     56 H15        -3.3955   -2.7561   -1.2710 H         1 <0>         0.3740
     57 H16        -6.7617   -2.7799   -2.6855 H         1 <0>         0.0846
     58 H17        -5.0542   -3.1411   -3.0425 H         1 <0>         0.1008
     59 H18        -6.4046   -5.2172   -2.6764 H         1 <0>         0.1154
     60 H19        -5.1022   -5.0398   -1.4751 H         1 <0>         0.1141
     61 H20        -7.2580   -3.9331    1.1891 H         1 <0>         0.4231
     62 H21        -6.1576   -1.8645    0.8894 H         1 <0>         0.1326
     63 H22        -7.4158   -2.0933   -0.3478 H         1 <0>         0.1342
     64 H23        -8.3481   -3.2926   -1.7198 H         1 <0>         0.4155
     65 H24        -8.6633   -6.2053    0.4273 H         1 <0>         0.1302
     66 H25       -10.8469   -7.2874    0.9106 H         1 <0>         0.1451
     67 H26       -12.8885   -6.4071   -0.1452 H         1 <0>         0.1644
     68 H27       -10.7386   -3.4528   -2.1122 H         1 <0>         0.1572
     69 H28        -7.2519   -0.3798   -0.8922 H         1 <0>         0.1171
     70 H29        -7.0249    1.9783   -1.5629 H         1 <0>         0.1282
     71 H30        -4.9081    2.7856   -2.5282 H         1 <0>         0.1337
     72 H31        -3.2427   -1.1219   -2.1433 H         1 <0>         0.1231
     73 H32        -2.9082    3.3814   -2.2489 H         1 <0>         0.0596
     74 H33        -1.7962    3.2446   -3.6320 H         1 <0>         0.0653
     75 H34        -3.5531    3.1135   -3.8862 H         1 <0>         0.0608
     76 H35        -1.4950   -0.0104   -1.8125 H         1 <0>         0.0540
     77 H36        -0.5547    1.3374   -2.4963 H         1 <0>         0.0670
     78 H37        -1.6318    1.6182   -1.1073 H         1 <0>         0.0573
     79 H38        -3.2256    0.9074   -5.0124 H         1 <0>         0.0578
     80 H39        -1.4687    1.0384   -4.7582 H         1 <0>         0.0655
     81 H40        -2.3474   -0.3964   -4.1774 H         1 <0>         0.0557
     82 H41        -1.3350   -1.3273   -0.1653 H         1 <0>         0.3721
     83 H42        -5.7027   -4.2173    0.7297 H         1 <0>         0.4393
@<TRIPOS>BOND
     1    1    2 1
     2    1   45 1
     3    1   46 1
     4    1   47 1
     5    2    3 2
     6    2    4 am
     7    4    5 1
     8    4   48 1
     9    5    6 1
    10    5    7 1
    11    5   16 1
    12    7    8 1
    13    7   49 1
    14    7   50 1
    15    8   13 ar
    16    8    9 ar
    17    9   10 ar
    18    9   51 1
    19   10   11 ar
    20   10   15 1
    21   11   12 ar
    22   11   52 1
    23   12   13 ar
    24   12   14 1
    25   13   53 1
    26   16   17 1
    27   16   18 1
    28   16   44 1
    29   18   19 1
    30   18   54 1
    31   18   55 1
    32   19   20 1
    33   19   56 1
    34   20   26 1
    35   20   21 1
    36   20   34 1
    37   21   22 1
    38   21   57 1
    39   21   58 1
    40   22   23 1
    41   22   59 1
    42   22   60 1
    43   23   24 1
    44   23   25 1
    45   23   27 1
    46   25   26 1
    47   25   61 1
    48   25   83 1
    49   26   62 1
    50   26   63 1
    51   27   28 1
    52   27   64 1
    53   28   33 ar
    54   28   29 ar
    55   29   30 ar
    56   29   65 1
    57   30   31 ar
    58   30   66 1
    59   31   32 ar
    60   31   67 1
    61   32   33 ar
    62   33   68 1
    63   34   39 ar
    64   34   35 ar
    65   35   36 ar
    66   35   69 1
    67   36   37 ar
    68   36   70 1
    69   37   38 ar
    70   37   71 1
    71   38   39 ar
    72   38   40 1
    73   39   72 1
    74   40   41 1
    75   40   42 1
    76   40   43 1
    77   41   73 1
    78   41   74 1
    79   41   75 1
    80   42   76 1
    81   42   77 1
    82   42   78 1
    83   43   79 1
    84   43   80 1
    85   43   81 1
    86   44   82 1
@<TRIPOS>MOLECULE
CHEMBL595267
   86    90     0     0     0
SMALL
USER_CHARGES

@<TRIPOS>ATOM
      1 C1          1.9649    1.5008  -10.1451 C.3       1 <0>        -0.1481
      2 C2          0.4580    1.6525   -9.9280 C.3       1 <0>        -0.0623
      3 C3         -0.2398    1.8021  -11.2814 C.3       1 <0>        -0.1492
      4 C4         -0.0730    0.4320   -9.2212 C.ar      1 <0>        -0.0505
      5 C5          0.0617   -0.8159   -9.8010 C.ar      1 <0>        -0.0954
      6 C6         -0.4253   -1.9353   -9.1528 C.ar      1 <0>        -0.0960
      7 C7         -1.0468   -1.8071   -7.9244 C.ar      1 <0>        -0.1362
      8 C8         -1.1807   -0.5597   -7.3445 C.ar      1 <0>        -0.0767
      9 C9         -0.6897    0.5595   -7.9909 C.ar      1 <0>        -0.0989
     10 C10        -1.8585   -0.4200   -6.0058 C.3       1 <0>        -0.0058
     11 C11        -1.7251    0.9219   -5.2830 C.3       1 <0>        -0.1453
     12 C12        -3.0594    0.5239   -5.9171 C.3       1 <0>        -0.1363
     13 N1         -1.8885   -1.6352   -5.1809 N.4       1 <0>        -0.4652
     14 C13        -0.5201   -1.9899   -4.7817 C.3       1 <0>        -0.0585
     15 C14        -0.5395   -3.3138   -4.0150 C.3       1 <0>         0.0705
     16 H1         -1.2469   -3.2449   -3.1887 H         1 <0>         0.1692
     17 C15         0.8586   -3.6061   -3.4665 C.3       1 <0>         0.1242
     18 H2          1.1274   -2.8511   -2.7276 H         1 <0>         0.0980
     19 C16         1.8721   -3.5900   -4.6090 C.3       1 <0>        -0.1073
     20 C17         3.2646   -3.3605   -4.0858 C.ar      1 <0>        -0.0581
     21 C18         3.9899   -2.2712   -4.5372 C.ar      1 <0>        -0.1462
     22 C19         5.2749   -2.0530   -4.0785 C.ar      1 <0>        -0.0741
     23 C20         5.8408   -2.9245   -3.1675 C.ar      1 <0>        -0.1408
     24 C21         5.1169   -4.0174   -2.7139 C.ar      1 <0>         0.1384
     25 C22         3.8231   -4.2291   -3.1688 C.ar      1 <0>        -0.1966
     26 O1          5.6930   -4.8808   -1.8397 O.3       1 <0>        -0.3164
     27 C23         4.8485   -5.5967   -0.9379 C.3       1 <0>         0.0548
     28 C24         5.6877   -6.6392   -0.1895 C.3       1 <0>        -0.1194
     29 C25         4.7773   -7.7764    0.2804 C.3       1 <0>        -0.1247
     30 C26         3.3701   -7.2295    0.5333 C.3       1 <0>         0.0393
     31 O2          2.4258   -8.3067    0.4557 O.3       1 <0>        -0.2970
     32 C27         1.1893   -7.9627    0.0101 C.ar      1 <0>         0.3397
     33 C28         1.0910   -6.9171   -0.8980 C.ar      1 <0>        -0.2246
     34 C29        -0.1753   -6.5112   -1.3262 C.ar      1 <0>        -0.0693
     35 C30        -1.2895   -7.1984   -0.8453 C.ar      1 <0>        -0.1197
     36 C31        -1.1016   -8.2529    0.0299 C.ar      1 <0>         0.1729
     37 N2          0.1135   -8.6029    0.4253 N.ar      1 <0>        -0.4724
     38 C32        -2.2969   -9.0149    0.5414 C.3       1 <0>         0.1090
     39 O3         -3.4897   -8.4612   -0.0177 O.3       1 <0>        -0.3906
     40 C33        -4.6879   -9.1150    0.4054 C.3       1 <0>         0.0323
     41 C34        -0.2924   -5.3699   -2.2688 C.2       1 <0>         0.5846
     42 O4         -1.3591   -4.8434   -2.5165 O.2       1 <0>        -0.4943
     43 N3          0.8764   -4.9467   -2.8376 N.am      1 <0>        -0.7323
     44 O5         -0.9359   -4.3679   -4.8947 O.3       1 <0>        -0.5303
     45 H3          2.3490    2.3836  -10.6563 H         1 <0>         0.0666
     46 H4          2.4620    1.3943   -9.1810 H         1 <0>         0.0565
     47 H5          2.1573    0.6166  -10.7528 H         1 <0>         0.0594
     48 H6          0.2656    2.5367   -9.3203 H         1 <0>         0.0820
     49 H7         -0.0474    0.9178  -11.8890 H         1 <0>         0.0595
     50 H8         -1.3133    1.9101  -11.1267 H         1 <0>         0.0576
     51 H9          0.1443    2.6848  -11.7926 H         1 <0>         0.0667
     52 H10         0.5472   -0.9160  -10.7605 H         1 <0>         0.1338
     53 H11        -0.3206   -2.9100   -9.6059 H         1 <0>         0.1348
     54 H12        -1.4279   -2.6817   -7.4182 H         1 <0>         0.1160
     55 H13        -0.7910    1.5337   -7.5360 H         1 <0>         0.1320
     56 H14        -1.6594    0.9033   -4.1952 H         1 <0>         0.1250
     57 H15        -1.1470    1.7037   -5.7758 H         1 <0>         0.1349
     58 H16        -3.3592    1.0438   -6.8270 H         1 <0>         0.1349
     59 H17        -3.8716    0.2434   -5.2464 H         1 <0>         0.1263
     60 H18        -2.4468   -1.4687   -4.3570 H         1 <0>         0.4304
     61 H19         0.1023   -2.0938   -5.6704 H         1 <0>         0.1366
     62 H20        -0.1132   -1.2060   -4.1428 H         1 <0>         0.1420
     63 H21         1.8385   -4.5458   -5.1317 H         1 <0>         0.0947
     64 H22         1.6147   -2.7920   -5.3055 H         1 <0>         0.0898
     65 H23         3.5500   -1.5899   -5.2504 H         1 <0>         0.1235
     66 H24         5.8372   -1.2015   -4.4323 H         1 <0>         0.1349
     67 H25         6.8456   -2.7551   -2.8095 H         1 <0>         0.1369
     68 H26         3.2539   -5.0724   -2.8068 H         1 <0>         0.1145
     69 H27         4.4068   -4.9025   -0.2230 H         1 <0>         0.0673
     70 H28         4.0588   -6.0977   -1.4977 H         1 <0>         0.0561
     71 H29         6.4528   -7.0372   -0.8561 H         1 <0>         0.0930
     72 H30         6.1626   -6.1728    0.6736 H         1 <0>         0.0856
     73 H31         4.7345   -8.5489   -0.4874 H         1 <0>         0.0856
     74 H32         5.1732   -8.2017    1.2026 H         1 <0>         0.0923
     75 H33         3.3273   -6.7782    1.5246 H         1 <0>         0.0821
     76 H34         3.1299   -6.4794   -0.2202 H         1 <0>         0.0734
     77 H35         1.9789   -6.4254   -1.2671 H         1 <0>         0.1376
     78 H36        -2.2845   -6.9116   -1.1520 H         1 <0>         0.1632
     79 H37        -2.2117  -10.0621    0.2509 H         1 <0>         0.0845
     80 H38        -2.3369   -8.9414    1.6281 H         1 <0>         0.0845
     81 H39        -4.6522  -10.1642    0.1122 H         1 <0>         0.0484
     82 H40        -4.7774   -9.0435    1.4894 H         1 <0>         0.0483
     83 H41        -5.5479   -8.6360   -0.0626 H         1 <0>         0.0929
     84 H42         1.6739   -5.4989   -2.8332 H         1 <0>         0.4132
     85 H43        -0.3502   -4.4869   -5.6549 H         1 <0>         0.3752
     86 H44        -2.2909   -2.3926   -5.7124 H         1 <0>         0.4331
@<TRIPOS>BOND
     1    1    2 1
     2    1   45 1
     3    1   46 1
     4    1   47 1
     5    2    3 1
     6    2    4 1
     7    2   48 1
     8    3   49 1
     9    3   50 1
    10    3   51 1
    11    4    9 ar
    12    4    5 ar
    13    5    6 ar
    14    5   52 1
    15    6    7 ar
    16    6   53 1
    17    7    8 ar
    18    7   54 1
    19    8    9 ar
    20    8   10 1
    21    9   55 1
    22   10   12 1
    23   10   11 1
    24   10   13 1
    25   11   12 1
    26   11   56 1
    27   11   57 1
    28   12   58 1
    29   12   59 1
    30   13   14 1
    31   13   60 1
    32   13   86 1
    33   14   15 1
    34   14   61 1
    35   14   62 1
    36   15   16 1
    37   15   17 1
    38   15   44 1
    39   17   18 1
    40   17   43 1
    41   17   19 1
    42   19   20 1
    43   19   63 1
    44   19   64 1
    45   20   25 ar
    46   20   21 ar
    47   21   22 ar
    48   21   65 1
    49   22   23 ar
    50   22   66 1
    51   23   24 ar
    52   23   67 1
    53   24   25 ar
    54   24   26 1
    55   25   68 1
    56   26   27 1
    57   27   28 1
    58   27   69 1
    59   27   70 1
    60   28   29 1
    61   28   71 1
    62   28   72 1
    63   29   30 1
    64   29   73 1
    65   29   74 1
    66   30   31 1
    67   30   75 1
    68   30   76 1
    69   31   32 1
    70   32   37 ar
    71   32   33 ar
    72   33   34 ar
    73   33   77 1
    74   34   35 ar
    75   34   41 1
    76   35   36 ar
    77   35   78 1
    78   36   37 ar
    79   36   38 1
    80   38   39 1
    81   38   79 1
    82   38   80 1
    83   39   40 1
    84   40   81 1
    85   40   82 1
    86   40   83 1
    87   41   42 2
    88   41   43 am
    89   43   84 1
    90   44   85 1
@<TRIPOS>MOLECULE
CHEMBL1209222
   75    78     0     0     0
SMALL
USER_CHARGES

@<TRIPOS>ATOM
      1 C1          0.6608    2.6688    2.0145 C.3       1 <0>        -0.1841
      2 C2          0.3093    1.3256    1.4285 C.2       1 <0>         0.5123
      3 O1          1.1833    0.6070    0.9920 O.2       1 <0>        -0.5329
      4 N1         -0.9763    0.9230    1.3894 N.am      1 <0>        -0.7323
      5 C3         -1.3180   -0.3827    0.8198 C.3       1 <0>         0.1322
      6 H1         -2.3963   -0.5323    0.8748 H         1 <0>         0.1054
      7 C4         -0.8700   -0.4343   -0.6423 C.3       1 <0>        -0.0983
      8 C5         -1.6575    0.5692   -1.4447 C.ar      1 <0>        -0.0281
      9 C6         -2.8520    0.1984   -2.0329 C.ar      1 <0>        -0.1645
     10 C7         -3.5763    1.1195   -2.7708 C.ar      1 <0>         0.1396
     11 C8         -3.1038    2.4121   -2.9188 C.ar      1 <0>        -0.1924
     12 C9         -1.9076    2.7824   -2.3289 C.ar      1 <0>         0.1387
     13 C10        -1.1876    1.8611   -1.5871 C.ar      1 <0>        -0.1580
     14 F1         -1.4453    4.0437   -2.4725 F         1 <0>        -0.1260
     15 F2         -4.7434    0.7566   -3.3464 F         1 <0>        -0.1258
     16 C11        -0.6093   -1.4850    1.6095 C.3       1 <0>         0.0689
     17 H2          0.4690   -1.3355    1.5544 H         1 <0>         0.1454
     18 C12        -1.0573   -1.4334    3.0715 C.3       1 <0>        -0.0559
     19 N2         -0.2896   -2.4116    3.8537 N.4       1 <0>        -0.4981
     20 C13        -0.7780   -2.4224    5.2391 C.3       1 <0>         0.1168
     21 C14        -0.6070   -1.0306    5.8510 C.3       1 <0>        -0.1365
     22 C15         0.8735   -0.6449    5.8352 C.3       1 <0>        -0.1349
     23 C16         1.6743   -1.6623    6.6503 C.3       1 <0>        -0.1321
     24 C17         1.5034   -3.0541    6.0384 C.3       1 <0>        -0.1360
     25 C18         0.0229   -3.4398    6.0542 C.3       1 <0>        -0.1307
     26 C19        -2.2362   -2.8024    5.2548 C.ar      1 <0>        -0.1142
     27 C20        -2.7486   -3.6167    4.2612 C.ar      1 <0>        -0.1352
     28 C21        -4.0858   -3.9680    4.2723 C.ar      1 <0>        -0.0873
     29 C22        -4.9144   -3.5062    5.2763 C.ar      1 <0>        -0.0977
     30 C23        -4.4031   -2.6884    6.2752 C.ar      1 <0>         0.1610
     31 C24        -3.0582   -2.3417    6.2642 C.ar      1 <0>        -0.0780
     32 N3         -5.2400   -2.2186    7.2935 N.am      1 <0>        -0.5689
     33 C25        -5.7468   -3.1837    8.2610 C.3       1 <0>         0.1105
     34 C26        -6.2258   -2.4717    9.5267 C.3       1 <0>        -0.1372
     35 C27        -7.1753   -1.3375    9.1226 C.3       1 <0>        -0.1284
     36 C28        -6.3665   -0.2707    8.3805 C.3       1 <0>        -0.1344
     37 C29        -5.5195   -0.9149    7.3211 C.2       1 <0>         0.5248
     38 O2         -5.0690   -0.2126    6.4408 O.2       1 <0>        -0.5413
     39 O3         -0.9426   -2.7586    1.0538 O.3       1 <0>        -0.5426
     40 H3          1.7390    2.8183    1.9594 H         1 <0>         0.1000
     41 H4          0.1559    3.4540    1.4519 H         1 <0>         0.0959
     42 H5          0.3416    2.7055    3.0561 H         1 <0>         0.0911
     43 H6         -1.6754    1.4977    1.7386 H         1 <0>         0.4126
     44 H7          0.1920   -0.1970   -0.7054 H         1 <0>         0.1083
     45 H8         -1.0432   -1.4341   -1.0403 H         1 <0>         0.1014
     46 H9         -3.2205   -0.8102   -1.9172 H         1 <0>         0.1430
     47 H10        -3.6678    3.1311   -3.4945 H         1 <0>         0.1522
     48 H11        -0.2565    2.1510   -1.1231 H         1 <0>         0.1362
     49 H12        -0.8841   -0.4336    3.4696 H         1 <0>         0.1416
     50 H13        -2.1193   -1.6707    3.1347 H         1 <0>         0.1414
     51 H14        -0.4036   -3.3291    3.4497 H         1 <0>         0.4272
     52 H15        -1.1776   -0.3058    5.2703 H         1 <0>         0.0909
     53 H16        -0.9694   -1.0386    6.8790 H         1 <0>         0.1117
     54 H17         1.2358   -0.6368    4.8072 H         1 <0>         0.0574
     55 H18         0.9953    0.3467    6.2711 H         1 <0>         0.0946
     56 H19         2.7291   -1.3875    6.6390 H         1 <0>         0.0830
     57 H20         1.3120   -1.6703    7.6783 H         1 <0>         0.0800
     58 H21         1.8657   -3.0460    5.0104 H         1 <0>         0.0585
     59 H22         2.0739   -3.7789    6.6191 H         1 <0>         0.0960
     60 H23        -0.3395   -3.4479    7.0822 H         1 <0>         0.1125
     61 H24        -0.0989   -4.4314    5.6183 H         1 <0>         0.0917
     62 H25        -2.1028   -3.9788    3.4749 H         1 <0>         0.1215
     63 H26        -4.4829   -4.6038    3.4948 H         1 <0>         0.1421
     64 H27        -5.9590   -3.7806    5.2842 H         1 <0>         0.1372
     65 H28        -2.6566   -1.7092    7.0421 H         1 <0>         0.1343
     66 H29        -6.5786   -3.7330    7.8200 H         1 <0>         0.0745
     67 H30        -4.9533   -3.8846    8.5202 H         1 <0>         0.0807
     68 H31        -6.7527   -3.1791   10.1671 H         1 <0>         0.0946
     69 H32        -5.3696   -2.0592   10.0604 H         1 <0>         0.0758
     70 H33        -7.9554   -1.7275    8.4688 H         1 <0>         0.0746
     71 H34        -7.6268   -0.9018   10.0139 H         1 <0>         0.0860
     72 H35        -7.0478    0.4435    7.9180 H         1 <0>         0.1078
     73 H36        -5.7215    0.2514    9.0872 H         1 <0>         0.1055
     74 H37        -1.8884   -2.9593    1.0697 H         1 <0>         0.3864
     75 H38         0.6870   -2.1585    3.8433 H         1 <0>         0.4279
@<TRIPOS>BOND
     1    1    2 1
     2    1   40 1
     3    1   41 1
     4    1   42 1
     5    2    3 2
     6    2    4 am
     7    4    5 1
     8    4   43 1
     9    5    6 1
    10    5    7 1
    11    5   16 1
    12    7    8 1
    13    7   44 1
    14    7   45 1
    15    8   13 ar
    16    8    9 ar
    17    9   10 ar
    18    9   46 1
    19   10   11 ar
    20   10   15 1
    21   11   12 ar
    22   11   47 1
    23   12   13 ar
    24   12   14 1
    25   13   48 1
    26   16   17 1
    27   16   18 1
    28   16   39 1
    29   18   19 1
    30   18   49 1
    31   18   50 1
    32   19   20 1
    33   19   51 1
    34   19   75 1
    35   20   25 1
    36   20   21 1
    37   20   26 1
    38   21   22 1
    39   21   52 1
    40   21   53 1
    41   22   23 1
    42   22   54 1
    43   22   55 1
    44   23   24 1
    45   23   56 1
    46   23   57 1
    47   24   25 1
    48   24   58 1
    49   24   59 1
    50   25   60 1
    51   25   61 1
    52   26   31 ar
    53   26   27 ar
    54   27   28 ar
    55   27   62 1
    56   28   29 ar
    57   28   63 1
    58   29   30 ar
    59   29   64 1
    60   30   31 ar
    61   30   32 1
    62   31   65 1
    63   32   37 am
    64   32   33 1
    65   33   34 1
    66   33   66 1
    67   33   67 1
    68   34   35 1
    69   34   68 1
    70   34   69 1
    71   35   36 1
    72   35   70 1
    73   35   71 1
    74   36   37 1
    75   36   72 1
    76   36   73 1
    77   37   38 2
    78   39   74 1
@<TRIPOS>MOLECULE
CHEMBL583888
   58    62     0     0     0
SMALL
USER_CHARGES

@<TRIPOS>ATOM
      1 C1          1.5071    1.5618    0.3416 C.ar      1 <0>        -0.1053
      2 C2          0.1928    1.9540    0.1679 C.ar      1 <0>        -0.0930
      3 C3         -0.7859    1.0066   -0.0664 C.ar      1 <0>        -0.0657
      4 C4         -0.4505   -0.3333   -0.1276 C.ar      1 <0>        -0.1201
      5 C5          0.8636   -0.7253    0.0452 C.ar      1 <0>        -0.0955
      6 C6          1.8423    0.2223    0.2810 C.ar      1 <0>        -0.0763
      7 C7          1.2291   -2.1858   -0.0204 C.3       1 <0>         0.2193
      8 C8          0.3916   -2.9840    0.9428 C.cat     1 <0>         0.5000
      9 N1         -0.8818   -3.1431    1.0015 N.pl3     1 <0>        -0.5618
     10 C9         -1.4529   -3.9688    2.0728 C.3       1 <0>         0.0555
     11 C10        -0.4777   -5.0790    2.4672 C.3       1 <0>        -0.1634
     12 C11         0.8624   -4.4631    2.8968 C.3       1 <0>         0.0846
     13 N2          1.2955   -3.5662    1.8139 N.pl3     1 <0>        -0.5400
     14 C12         2.5652   -3.1805    1.4894 C.2       1 <0>         0.6042
     15 N3          2.6085   -2.3959    0.4542 N.2       1 <0>        -0.5364
     16 N4          3.6810   -3.5803    2.1857 N.pl3     1 <0>        -0.8065
     17 C13         1.0675   -2.7076   -1.4249 C.ar      1 <0>        -0.1160
     18 C14        -0.1968   -2.8601   -1.9633 C.ar      1 <0>        -0.0830
     19 C15        -0.3476   -3.3387   -3.2505 C.ar      1 <0>        -0.1130
     20 C16         0.7710   -3.6658   -4.0031 C.ar      1 <0>         0.1340
     21 C17         2.0385   -3.5114   -3.4607 C.ar      1 <0>        -0.1836
     22 C18         2.1841   -3.0276   -2.1750 C.ar      1 <0>        -0.0269
     23 O1          0.6253   -4.1372   -5.2694 O.3       1 <0>        -0.3070
     24 C19         1.8208   -4.4536   -5.9854 C.3       1 <0>         0.6049
     25 F1          2.5297   -5.4427   -5.2954 F         1 <0>        -0.1621
     26 F2          1.4899   -4.9215   -7.2617 F         1 <0>        -0.1219
     27 F3          2.6130   -3.3062   -6.1002 F         1 <0>        -0.1598
     28 C20        -2.2187    1.4340   -0.2548 C.3       1 <0>        -0.0821
     29 C21        -2.4808    1.6997   -1.7386 C.3       1 <0>        -0.0830
     30 C22        -3.9354    2.1336   -1.9299 C.3       1 <0>        -0.1593
     31 C23        -4.8406    1.2231   -2.7620 C.3       1 <0>        -0.1810
     32 C24        -4.3665    2.5604   -3.3345 C.3       1 <0>        -0.1785
     33 H1          2.2725    2.3025    0.5202 H         1 <0>         0.1363
     34 H2         -0.0693    3.0006    0.2156 H         1 <0>         0.1342
     35 H3         -1.2153   -1.0737   -0.3099 H         1 <0>         0.1048
     36 H4          2.8690   -0.0841    0.4168 H         1 <0>         0.1426
     37 H5         -1.6565   -3.3423    2.9413 H         1 <0>         0.1233
     38 H6         -2.3855   -4.4143    1.7265 H         1 <0>         0.1395
     39 H7         -0.8957   -5.6516    3.2952 H         1 <0>         0.1409
     40 H8         -0.3166   -5.7396    1.6153 H         1 <0>         0.1000
     41 H9          0.7318   -3.8961    3.8186 H         1 <0>         0.1156
     42 H10         1.6019   -5.2498    3.0455 H         1 <0>         0.1262
     43 H11         3.5897   -4.1675    2.9524 H         1 <0>         0.4196
     44 H12         4.5596   -3.2752    1.9105 H         1 <0>         0.4407
     45 H13        -1.0673   -2.6053   -1.3770 H         1 <0>         0.1194
     46 H14        -1.3354   -3.4583   -3.6703 H         1 <0>         0.1521
     47 H15         2.9108   -3.7654   -4.0446 H         1 <0>         0.1465
     48 H16         3.1708   -2.9030   -1.7539 H         1 <0>         0.1545
     49 H17        -2.8826    0.6438    0.0956 H         1 <0>         0.0731
     50 H18        -2.4044    2.3441    0.3156 H         1 <0>         0.0818
     51 H19        -1.8168    2.4899   -2.0890 H         1 <0>         0.0712
     52 H20        -2.2951    0.7896   -2.3090 H         1 <0>         0.0644
     53 H21        -4.3854    2.6552   -1.0851 H         1 <0>         0.1060
     54 H22        -4.3999    0.3150   -3.1732 H         1 <0>         0.0921
     55 H23        -5.8864    1.1454   -2.4647 H         1 <0>         0.0943
     56 H24        -5.1003    3.3625   -3.4138 H         1 <0>         0.0968
     57 H25        -3.6137    2.5320   -4.1223 H         1 <0>         0.0950
     58 H26        -1.4594   -2.7222    0.3456 H         1 <0>         0.4477
@<TRIPOS>BOND
     1    1    6 ar
     2    1    2 ar
     3    1   33 1
     4    2    3 ar
     5    2   34 1
     6    3    4 ar
     7    3   28 1
     8    4    5 ar
     9    4   35 1
    10    5    6 ar
    11    5    7 1
    12    6   36 1
    13    7   15 1
    14    7    8 1
    15    7   17 1
    16    8   13 1
    17    8    9 2
    18    9   10 1
    19    9   58 1
    20   10   11 1
    21   10   37 1
    22   10   38 1
    23   11   12 1
    24   11   39 1
    25   11   40 1
    26   12   13 1
    27   12   41 1
    28   12   42 1
    29   13   14 1
    30   14   15 2
    31   14   16 1
    32   16   43 1
    33   16   44 1
    34   17   22 ar
    35   17   18 ar
    36   18   19 ar
    37   18   45 1
    38   19   20 ar
    39   19   46 1
    40   20   21 ar
    41   20   23 1
    42   21   22 ar
    43   21   47 1
    44   22   48 1
    45   23   24 1
    46   24   25 1
    47   24   26 1
    48   24   27 1
    49   28   29 1
    50   28   49 1
    51   28   50 1
    52   29   30 1
    53   29   51 1
    54   29   52 1
    55   30   32 1
    56   30   31 1
    57   30   53 1
    58   31   32 1
    59   31   54 1
    60   31   55 1
    61   32   56 1
    62   32   57 1
@<TRIPOS>MOLECULE
CHEMBL583888__1
   58    62     0     0     0
SMALL
USER_CHARGES

@<TRIPOS>ATOM
      1 C1          0.5405    1.5174   -0.2752 C.ar      1 <0>        -0.1046
      2 C2         -0.8195    1.5626   -0.0309 C.ar      1 <0>        -0.0933
      3 C3         -1.5163    0.3950    0.2170 C.ar      1 <0>        -0.0648
      4 C4         -0.8532   -0.8183    0.2202 C.ar      1 <0>        -0.1217
      5 C5          0.5062   -0.8635   -0.0249 C.ar      1 <0>        -0.0944
      6 C6          1.2034    0.3046   -0.2714 C.ar      1 <0>        -0.0753
      7 C7          1.2291   -2.1858   -0.0204 C.3       1 <0>         0.2193
      8 C8          0.5258   -3.1757   -0.9103 C.cat     1 <0>         0.5000
      9 N1         -0.6591   -3.6658   -0.8332 N.pl3     1 <0>        -0.5616
     10 C9         -1.0960   -4.6469   -1.8344 C.3       1 <0>         0.0555
     11 C10        -0.4155   -4.3771   -3.1773 C.3       1 <0>        -0.1632
     12 C11         1.1102   -4.4076   -3.0004 C.3       1 <0>         0.0848
     13 N2          1.4390   -3.4841   -1.9031 N.pl3     1 <0>        -0.5400
     14 C12         2.6066   -2.8099   -1.6838 C.2       1 <0>         0.6040
     15 N3          2.5632   -2.0483   -0.6316 N.2       1 <0>        -0.5362
     16 N4          3.7128   -2.9253   -2.4918 N.pl3     1 <0>        -0.8066
     17 C13         1.3430   -2.7201    1.3841 C.ar      1 <0>        -0.1176
     18 C14         0.2041   -3.0844    2.0784 C.ar      1 <0>        -0.0814
     19 C15         0.3059   -3.5741    3.3662 C.ar      1 <0>        -0.1133
     20 C16         1.5521   -3.7006    3.9625 C.ar      1 <0>         0.1343
     21 C17         2.6933   -3.3348    3.2635 C.ar      1 <0>        -0.1843
     22 C18         2.5866   -2.8505    1.9741 C.ar      1 <0>        -0.0284
     23 O1          1.6547   -4.1816    5.2294 O.3       1 <0>        -0.3069
     24 C19         2.9695   -4.2845    5.7797 C.3       1 <0>         0.6050
     25 F1          3.5632   -3.0181    5.8091 F         1 <0>        -0.1598
     26 F2          2.8920   -4.7937    7.0804 F         1 <0>        -0.1220
     27 F3          3.7404   -5.1427    4.9881 F         1 <0>        -0.1624
     28 C20        -2.9986    0.4443    0.4843 C.3       1 <0>        -0.0852
     29 C21        -3.7595    0.3161   -0.8369 C.3       1 <0>        -0.0795
     30 C22        -5.2644    0.3662   -0.5655 C.3       1 <0>        -0.1593
     31 C23        -6.0850   -0.8803   -0.9030 C.3       1 <0>        -0.1804
     32 C24        -6.2007    0.3711   -1.7756 C.3       1 <0>        -0.1786
     33 H1          1.0842    2.4294   -0.4733 H         1 <0>         0.1365
     34 H2         -1.3374    2.5103   -0.0334 H         1 <0>         0.1343
     35 H3         -1.3976   -1.7306    0.4146 H         1 <0>         0.1032
     36 H4          2.2659    0.2694   -0.4622 H         1 <0>         0.1429
     37 H5         -0.8369   -5.6494   -1.4938 H         1 <0>         0.1235
     38 H6         -2.1769   -4.5793   -1.9579 H         1 <0>         0.1389
     39 H7         -0.7127   -5.1420   -3.8946 H         1 <0>         0.1408
     40 H8         -0.7182   -3.3973   -3.5467 H         1 <0>         0.0997
     41 H9          1.4343   -5.4167   -2.7460 H         1 <0>         0.1157
     42 H10         1.5970   -4.0808   -3.9192 H         1 <0>         0.1261
     43 H11         3.6894   -3.5099   -3.2655 H         1 <0>         0.4196
     44 H12         4.5167   -2.4221   -2.2883 H         1 <0>         0.4407
     45 H13        -0.7658   -2.9858    1.6137 H         1 <0>         0.1228
     46 H14        -0.5840   -3.8578    3.9083 H         1 <0>         0.1525
     47 H15         3.6645   -3.4323    3.7256 H         1 <0>         0.1463
     48 H16         3.4750   -2.5698    1.4280 H         1 <0>         0.1536
     49 H17        -3.2762   -0.3772    1.1447 H         1 <0>         0.0768
     50 H18        -3.2509    1.3928    0.9583 H         1 <0>         0.0842
     51 H19        -3.4819    1.1376   -1.4973 H         1 <0>         0.0705
     52 H20        -3.5072   -0.6324   -1.3109 H         1 <0>         0.0574
     53 H21        -5.5659    0.9467    0.3064 H         1 <0>         0.1083
     54 H22        -5.5527   -1.7360   -1.3183 H         1 <0>         0.0890
     55 H23        -6.9264   -1.1201   -0.2529 H         1 <0>         0.0958
     56 H24        -7.1182    0.9546   -1.6997 H         1 <0>         0.0977
     57 H25        -5.7445    0.3387   -2.7650 H         1 <0>         0.0934
     58 H26        -1.2583   -3.3910   -0.1216 H         1 <0>         0.4478
@<TRIPOS>BOND
     1    1    6 ar
     2    1    2 ar
     3    1   33 1
     4    2    3 ar
     5    2   34 1
     6    3    4 ar
     7    3   28 1
     8    4    5 ar
     9    4   35 1
    10    5    6 ar
    11    5    7 1
    12    6   36 1
    13    7   15 1
    14    7    8 1
    15    7   17 1
    16    8   13 1
    17    8    9 2
    18    9   10 1
    19    9   58 1
    20   10   11 1
    21   10   37 1
    22   10   38 1
    23   11   12 1
    24   11   39 1
    25   11   40 1
    26   12   13 1
    27   12   41 1
    28   12   42 1
    29   13   14 1
    30   14   15 2
    31   14   16 1
    32   16   43 1
    33   16   44 1
    34   17   22 ar
    35   17   18 ar
    36   18   19 ar
    37   18   45 1
    38   19   20 ar
    39   19   46 1
    40   20   21 ar
    41   20   23 1
    42   21   22 ar
    43   21   47 1
    44   22   48 1
    45   23   24 1
    46   24   25 1
    47   24   26 1
    48   24   27 1
    49   28   29 1
    50   28   49 1
    51   28   50 1
    52   29   30 1
    53   29   51 1
    54   29   52 1
    55   30   32 1
    56   30   31 1
    57   30   53 1
    58   31   32 1
    59   31   54 1
    60   31   55 1
    61   32   56 1
    62   32   57 1
@<TRIPOS>MOLECULE
CHEMBL1209105
   72    75     0     0     0
SMALL
USER_CHARGES

@<TRIPOS>ATOM
      1 C1         -0.6772    2.5667   -0.4738 C.3       1 <0>        -0.1822
      2 C2         -0.3725    1.1055   -0.6815 C.2       1 <0>         0.5120
      3 O1          0.0123    0.4283    0.2482 O.2       1 <0>        -0.5328
      4 N1         -0.5276    0.5513   -1.9002 N.am      1 <0>        -0.7319
      5 C3         -0.2313   -0.8692   -2.1020 C.3       1 <0>         0.1321
      6 H1         -0.4144   -1.1341   -3.1434 H         1 <0>         0.1054
      7 C4          1.2348   -1.1384   -1.7574 C.3       1 <0>        -0.0987
      8 C5          2.1223   -0.4041   -2.7292 C.ar      1 <0>        -0.0283
      9 C6          2.5195   -1.0187   -3.9016 C.ar      1 <0>        -0.1646
     10 C7          3.3353   -0.3451   -4.7951 C.ar      1 <0>         0.1399
     11 C8          3.7525    0.9444   -4.5138 C.ar      1 <0>        -0.1923
     12 C9          3.3536    1.5591   -3.3395 C.ar      1 <0>         0.1388
     13 C10         2.5336    0.8855   -2.4500 C.ar      1 <0>        -0.1582
     14 F1          3.7601    2.8177   -3.0637 F         1 <0>        -0.1259
     15 F2          3.7242   -0.9464   -5.9406 F         1 <0>        -0.1255
     16 C11        -1.1312   -1.7116   -1.1957 C.3       1 <0>         0.0684
     17 H2         -0.9482   -1.4466   -0.1543 H         1 <0>         0.1453
     18 C12        -2.5974   -1.4424   -1.5403 C.3       1 <0>        -0.0560
     19 N2         -3.4625   -2.1581   -0.5930 N.4       1 <0>        -0.4990
     20 C13        -4.8660   -2.0019   -0.9973 C.3       1 <0>         0.1168
     21 C14        -5.2278   -0.5154   -1.0199 C.3       1 <0>        -0.1366
     22 C15        -5.0300    0.0789    0.3760 C.3       1 <0>        -0.1353
     23 C16        -5.9322   -0.6505    1.3734 C.3       1 <0>        -0.1321
     24 C17        -5.5705   -2.1369    1.3960 C.3       1 <0>        -0.1365
     25 C18        -5.7683   -2.7312    0.0001 C.3       1 <0>        -0.1311
     26 C19        -5.0609   -2.5872   -2.3722 C.ar      1 <0>        -0.1230
     27 C20        -4.2290   -3.5976   -2.8176 C.ar      1 <0>        -0.1364
     28 C21        -4.4077   -4.1345   -4.0786 C.ar      1 <0>        -0.0982
     29 C22        -5.4187   -3.6614   -4.8945 C.ar      1 <0>        -0.0764
     30 C23        -6.2510   -2.6519   -4.4488 C.ar      1 <0>        -0.0739
     31 C24        -6.0749   -2.1178   -3.1858 C.ar      1 <0>        -0.0844
     32 C25        -7.3527   -2.1359   -5.3383 C.3       1 <0>         0.1142
     33 C26        -8.6021   -3.0318   -5.1978 C.3       1 <0>        -0.1469
     34 C27        -9.1231   -3.1022   -6.6592 C.3       1 <0>        -0.1578
     35 C28        -7.7901   -3.0720   -7.4485 C.3       1 <0>         0.0457
     36 O2         -6.9355   -2.1864   -6.7076 O.3       1 <0>        -0.3698
     37 O3         -0.8423   -3.0971   -1.3925 O.3       1 <0>        -0.5426
     38 H3          0.2226    3.1548   -0.6548 H         1 <0>         0.1024
     39 H4         -1.4594    2.8768   -1.1668 H         1 <0>         0.0835
     40 H5         -1.0151    2.7255    0.5502 H         1 <0>         0.0996
     41 H6         -0.8353    1.0930   -2.6437 H         1 <0>         0.4119
     42 H7          1.4397   -0.7913   -0.7446 H         1 <0>         0.1083
     43 H8          1.4327   -2.2083   -1.8218 H         1 <0>         0.1014
     44 H9          2.1939   -2.0248   -4.1209 H         1 <0>         0.1430
     45 H10         4.3891    1.4704   -5.2099 H         1 <0>         0.1523
     46 H11         2.2186    1.3665   -1.5357 H         1 <0>         0.1359
     47 H12        -2.7952   -0.3724   -1.4759 H         1 <0>         0.1415
     48 H13        -2.8023   -1.7894   -2.5530 H         1 <0>         0.1415
     49 H14        -3.2203   -3.1376   -0.5904 H         1 <0>         0.4276
     50 H15        -4.5850    0.0042   -1.7304 H         1 <0>         0.0896
     51 H16        -6.2693   -0.3994   -1.3199 H         1 <0>         0.1136
     52 H17        -3.9885   -0.0371    0.6760 H         1 <0>         0.0568
     53 H18        -5.2877    1.1379    0.3600 H         1 <0>         0.0947
     54 H19        -5.7913   -0.2271    2.3679 H         1 <0>         0.0826
     55 H20        -6.9737   -0.5345    1.0734 H         1 <0>         0.0805
     56 H21        -4.5290   -2.2529    1.6960 H         1 <0>         0.0579
     57 H22        -6.2133   -2.6566    2.1066 H         1 <0>         0.0957
     58 H23        -6.8098   -2.6153   -0.2999 H         1 <0>         0.1132
     59 H24        -5.5106   -3.7902    0.0162 H         1 <0>         0.0906
     60 H25        -3.4392   -3.9672   -2.1804 H         1 <0>         0.1179
     61 H26        -3.7574   -4.9233   -4.4268 H         1 <0>         0.1371
     62 H27        -5.5579   -4.0804   -5.8801 H         1 <0>         0.1351
     63 H28        -6.7276   -1.3316   -2.8361 H         1 <0>         0.1348
     64 H29        -7.5989   -1.1100   -5.0644 H         1 <0>         0.0943
     65 H30        -8.3299   -4.0229   -4.8349 H         1 <0>         0.0800
     66 H31        -9.3408   -2.5676   -4.5445 H         1 <0>         0.0884
     67 H32        -9.6650   -4.0308   -6.8387 H         1 <0>         0.0899
     68 H33        -9.7409   -2.2366   -6.8981 H         1 <0>         0.0844
     69 H34        -7.3538   -4.0699   -7.4925 H         1 <0>         0.0634
     70 H35        -7.9547   -2.6854   -8.4543 H         1 <0>         0.0940
     71 H36        -0.9833   -3.4034   -2.2989 H         1 <0>         0.3864
     72 H37        -3.3347   -1.7776    0.3327 H         1 <0>         0.4276
@<TRIPOS>BOND
     1    1    2 1
     2    1   38 1
     3    1   39 1
     4    1   40 1
     5    2    3 2
     6    2    4 am
     7    4    5 1
     8    4   41 1
     9    5    6 1
    10    5    7 1
    11    5   16 1
    12    7    8 1
    13    7   42 1
    14    7   43 1
    15    8   13 ar
    16    8    9 ar
    17    9   10 ar
    18    9   44 1
    19   10   11 ar
    20   10   15 1
    21   11   12 ar
    22   11   45 1
    23   12   13 ar
    24   12   14 1
    25   13   46 1
    26   16   17 1
    27   16   18 1
    28   16   37 1
    29   18   19 1
    30   18   47 1
    31   18   48 1
    32   19   20 1
    33   19   49 1
    34   19   72 1
    35   20   25 1
    36   20   21 1
    37   20   26 1
    38   21   22 1
    39   21   50 1
    40   21   51 1
    41   22   23 1
    42   22   52 1
    43   22   53 1
    44   23   24 1
    45   23   54 1
    46   23   55 1
    47   24   25 1
    48   24   56 1
    49   24   57 1
    50   25   58 1
    51   25   59 1
    52   26   31 ar
    53   26   27 ar
    54   27   28 ar
    55   27   60 1
    56   28   29 ar
    57   28   61 1
    58   29   30 ar
    59   29   62 1
    60   30   31 ar
    61   30   32 1
    62   31   63 1
    63   32   36 1
    64   32   33 1
    65   32   64 1
    66   33   34 1
    67   33   65 1
    68   33   66 1
    69   34   35 1
    70   34   67 1
    71   34   68 1
    72   35   36 1
    73   35   69 1
    74   35   70 1
    75   37   71 1
@<TRIPOS>MOLECULE
CHEMBL1209105__1
   72    75     0     0     0
SMALL
USER_CHARGES

@<TRIPOS>ATOM
      1 C1         -0.6772    2.5667   -0.4738 C.3       1 <0>        -0.1821
      2 C2         -0.3725    1.1055   -0.6815 C.2       1 <0>         0.5119
      3 O1          0.0123    0.4283    0.2482 O.2       1 <0>        -0.5322
      4 N1         -0.5276    0.5513   -1.9002 N.am      1 <0>        -0.7321
      5 C3         -0.2313   -0.8692   -2.1020 C.3       1 <0>         0.1324
      6 H1         -0.4144   -1.1341   -3.1434 H         1 <0>         0.1052
      7 C4          1.2348   -1.1384   -1.7574 C.3       1 <0>        -0.0990
      8 C5          2.1223   -0.4041   -2.7292 C.ar      1 <0>        -0.0282
      9 C6          2.5195   -1.0187   -3.9016 C.ar      1 <0>        -0.1647
     10 C7          3.3353   -0.3451   -4.7951 C.ar      1 <0>         0.1398
     11 C8          3.7525    0.9444   -4.5138 C.ar      1 <0>        -0.1924
     12 C9          3.3536    1.5591   -3.3395 C.ar      1 <0>         0.1388
     13 C10         2.5336    0.8855   -2.4500 C.ar      1 <0>        -0.1582
     14 F1          3.7601    2.8177   -3.0637 F         1 <0>        -0.1259
     15 F2          3.7242   -0.9464   -5.9406 F         1 <0>        -0.1255
     16 C11        -1.1312   -1.7116   -1.1957 C.3       1 <0>         0.0681
     17 H2         -0.9482   -1.4466   -0.1543 H         1 <0>         0.1453
     18 C12        -2.5974   -1.4424   -1.5403 C.3       1 <0>        -0.0558
     19 N2         -3.4625   -2.1581   -0.5930 N.4       1 <0>        -0.4992
     20 C13        -4.8660   -2.0019   -0.9973 C.3       1 <0>         0.1170
     21 C14        -5.2278   -0.5154   -1.0199 C.3       1 <0>        -0.1364
     22 C15        -5.0300    0.0789    0.3760 C.3       1 <0>        -0.1352
     23 C16        -5.9322   -0.6505    1.3734 C.3       1 <0>        -0.1323
     24 C17        -5.5705   -2.1369    1.3960 C.3       1 <0>        -0.1364
     25 C18        -5.7683   -2.7312    0.0001 C.3       1 <0>        -0.1318
     26 C19        -5.0609   -2.5872   -2.3722 C.ar      1 <0>        -0.1240
     27 C20        -4.2290   -3.5976   -2.8176 C.ar      1 <0>        -0.1344
     28 C21        -4.4077   -4.1345   -4.0786 C.ar      1 <0>        -0.0991
     29 C22        -5.4187   -3.6614   -4.8945 C.ar      1 <0>        -0.0723
     30 C23        -6.2510   -2.6519   -4.4488 C.ar      1 <0>        -0.0646
     31 C24        -6.0749   -2.1178   -3.1858 C.ar      1 <0>        -0.0821
     32 C25        -7.3527   -2.1359   -5.3383 C.3       1 <0>         0.1138
     33 C26        -6.7718   -1.1932   -6.4221 C.3       1 <0>        -0.1458
     34 C27        -7.8529   -1.3165   -7.5302 C.3       1 <0>        -0.1577
     35 C28        -8.3036   -2.7860   -7.3861 C.3       1 <0>         0.0473
     36 O2         -7.9541   -3.2185   -6.0661 O.3       1 <0>        -0.3728
     37 O3         -0.8423   -3.0971   -1.3925 O.3       1 <0>        -0.5422
     38 H3          0.2226    3.1548   -0.6548 H         1 <0>         0.1024
     39 H4         -1.4594    2.8768   -1.1668 H         1 <0>         0.0833
     40 H5         -1.0151    2.7255    0.5502 H         1 <0>         0.0997
     41 H6         -0.8353    1.0930   -2.6437 H         1 <0>         0.4116
     42 H7          1.4397   -0.7913   -0.7446 H         1 <0>         0.1084
     43 H8          1.4327   -2.2083   -1.8218 H         1 <0>         0.1016
     44 H9          2.1939   -2.0248   -4.1209 H         1 <0>         0.1430
     45 H10         4.3891    1.4704   -5.2099 H         1 <0>         0.1523
     46 H11         2.2186    1.3665   -1.5357 H         1 <0>         0.1359
     47 H12        -2.7952   -0.3724   -1.4759 H         1 <0>         0.1413
     48 H13        -2.8023   -1.7894   -2.5530 H         1 <0>         0.1412
     49 H14        -3.2203   -3.1376   -0.5904 H         1 <0>         0.4279
     50 H15        -4.5850    0.0042   -1.7304 H         1 <0>         0.0892
     51 H16        -6.2693   -0.3994   -1.3199 H         1 <0>         0.1137
     52 H17        -3.9885   -0.0371    0.6760 H         1 <0>         0.0568
     53 H18        -5.2877    1.1379    0.3600 H         1 <0>         0.0945
     54 H19        -5.7913   -0.2271    2.3679 H         1 <0>         0.0826
     55 H20        -6.9737   -0.5345    1.0734 H         1 <0>         0.0807
     56 H21        -4.5290   -2.2529    1.6960 H         1 <0>         0.0578
     57 H22        -6.2133   -2.6566    2.1066 H         1 <0>         0.0959
     58 H23        -6.8098   -2.6153   -0.2999 H         1 <0>         0.1138
     59 H24        -5.5106   -3.7902    0.0162 H         1 <0>         0.0911
     60 H25        -3.4392   -3.9672   -2.1804 H         1 <0>         0.1183
     61 H26        -3.7574   -4.9233   -4.4268 H         1 <0>         0.1378
     62 H27        -5.5579   -4.0804   -5.8801 H         1 <0>         0.1375
     63 H28        -6.7276   -1.3316   -2.8361 H         1 <0>         0.1351
     64 H29        -8.1043   -1.6151   -4.7451 H         1 <0>         0.0846
     65 H30        -6.7006   -0.1693   -6.0549 H         1 <0>         0.0871
     66 H31        -5.8044   -1.5499   -6.7756 H         1 <0>         0.0813
     67 H32        -8.6827   -0.6358   -7.3401 H         1 <0>         0.0821
     68 H33        -7.4211   -1.1380   -8.5150 H         1 <0>         0.0889
     69 H34        -9.3824   -2.8572   -7.5251 H         1 <0>         0.0763
     70 H35        -7.7929   -3.4036   -8.1249 H         1 <0>         0.0751
     71 H36        -0.9833   -3.4034   -2.2989 H         1 <0>         0.3863
     72 H37        -3.3347   -1.7776    0.3327 H         1 <0>         0.4277
@<TRIPOS>BOND
     1    1    2 1
     2    1   38 1
     3    1   39 1
     4    1   40 1
     5    2    3 2
     6    2    4 am
     7    4    5 1
     8    4   41 1
     9    5    6 1
    10    5    7 1
    11    5   16 1
    12    7    8 1
    13    7   42 1
    14    7   43 1
    15    8   13 ar
    16    8    9 ar
    17    9   10 ar
    18    9   44 1
    19   10   11 ar
    20   10   15 1
    21   11   12 ar
    22   11   45 1
    23   12   13 ar
    24   12   14 1
    25   13   46 1
    26   16   17 1
    27   16   18 1
    28   16   37 1
    29   18   19 1
    30   18   47 1
    31   18   48 1
    32   19   20 1
    33   19   49 1
    34   19   72 1
    35   20   25 1
    36   20   21 1
    37   20   26 1
    38   21   22 1
    39   21   50 1
    40   21   51 1
    41   22   23 1
    42   22   52 1
    43   22   53 1
    44   23   24 1
    45   23   54 1
    46   23   55 1
    47   24   25 1
    48   24   56 1
    49   24   57 1
    50   25   58 1
    51   25   59 1
    52   26   31 ar
    53   26   27 ar
    54   27   28 ar
    55   27   60 1
    56   28   29 ar
    57   28   61 1
    58   29   30 ar
    59   29   62 1
    60   30   31 ar
    61   30   32 1
    62   31   63 1
    63   32   36 1
    64   32   33 1
    65   32   64 1
    66   33   34 1
    67   33   65 1
    68   33   66 1
    69   34   35 1
    70   34   67 1
    71   34   68 1
    72   35   36 1
    73   35   69 1
    74   35   70 1
    75   37   71 1
@<TRIPOS>MOLECULE
CHEMBL403427
   91    95     0     0     0
SMALL
USER_CHARGES

@<TRIPOS>ATOM
      1 C1         -2.8497   -3.4497    0.8199 C.3       1 <0>        -0.1679
      2 C2         -2.0903   -4.7301    0.4666 C.3       1 <0>         0.1216
      3 N1         -3.0277   -5.8547    0.4126 N.pl3     1 <0>        -0.7460
      4 C3         -2.5641   -7.1365    0.1062 C.ar      1 <0>         0.2381
      5 C4         -1.2150   -7.3446   -0.1411 C.ar      1 <0>        -0.1945
      6 C5         -0.7531   -8.6247   -0.4464 C.ar      1 <0>        -0.0645
      7 C6         -1.6503   -9.6917   -0.5019 C.ar      1 <0>        -0.1514
      8 C7         -2.9973   -9.4765   -0.2536 C.ar      1 <0>         0.2099
      9 C8         -3.4532   -8.2018    0.0552 C.ar      1 <0>        -0.2099
     10 N2         -3.8979  -10.5463   -0.3096 N.am      1 <0>        -0.5619
     11 C9         -5.3548  -10.4091   -0.1965 C.3       1 <0>         0.0942
     12 C10        -5.9368  -11.7325   -0.7408 C.3       1 <0>        -0.1322
     13 C11        -4.7677  -12.7148   -0.4976 C.3       1 <0>        -0.1544
     14 C12        -3.5402  -11.8308   -0.4796 C.2       1 <0>         0.5150
     15 O1         -2.3991  -12.2242   -0.5986 O.2       1 <0>        -0.4979
     16 C13         0.6841   -8.8505   -0.7111 C.2       1 <0>         0.5637
     17 O2          1.0851   -9.9667   -0.9770 O.2       1 <0>        -0.4958
     18 N3          1.5494   -7.8186   -0.6575 N.am      1 <0>        -0.7246
     19 C14         2.9733   -8.0423   -0.9198 C.3       1 <0>         0.1290
     20 H1          3.2639   -9.0208   -0.5373 H         1 <0>         0.1091
     21 C15         3.2290   -7.9876   -2.4273 C.3       1 <0>        -0.1007
     22 C16         2.5152   -9.1318   -3.0997 C.ar      1 <0>        -0.0774
     23 C17         3.1561  -10.3456   -3.2635 C.ar      1 <0>        -0.1068
     24 C18         2.5013  -11.3953   -3.8803 C.ar      1 <0>        -0.1108
     25 C19         1.2055  -11.2312   -4.3330 C.ar      1 <0>        -0.1088
     26 C20         0.5643  -10.0177   -4.1684 C.ar      1 <0>        -0.1069
     27 C21         1.2176   -8.9694   -3.5477 C.ar      1 <0>        -0.1045
     28 C22         3.7968   -6.9572   -0.2231 C.3       1 <0>         0.0783
     29 H2          3.5482   -6.9375    0.8380 H         1 <0>         0.1324
     30 C23         5.2869   -7.2605   -0.3922 C.3       1 <0>        -0.0623
     31 N4          6.0749   -6.2874    0.3761 N.4       1 <0>        -0.4977
     32 C24         7.5064   -6.5373    0.1608 C.3       1 <0>         0.1171
     33 C25         8.3254   -5.4642    0.8809 C.3       1 <0>        -0.1310
     34 C26         8.0196   -5.5092    2.3793 C.3       1 <0>        -0.1354
     35 C27         8.3856   -6.8875    2.9334 C.3       1 <0>        -0.1333
     36 C28         7.5665   -7.9606    2.2134 C.3       1 <0>        -0.1349
     37 C29         7.8724   -7.9157    0.7149 C.3       1 <0>        -0.1390
     38 C30         7.8076   -6.4931   -1.3151 C.ar      1 <0>        -0.0838
     39 C31         7.0233   -5.7267   -2.1576 C.ar      1 <0>        -0.1796
     40 C32         7.2970   -5.6840   -3.5120 C.ar      1 <0>        -0.0559
     41 C33         8.3552   -6.4077   -4.0273 C.ar      1 <0>        -0.1900
     42 C34         9.1434   -7.1772   -3.1843 C.ar      1 <0>         0.1523
     43 C35         8.8703   -7.2136   -1.8244 C.ar      1 <0>        -0.1278
     44 O3         10.1848   -7.8899   -3.6887 O.3       1 <0>        -0.3090
     45 C36        10.4106   -7.8005   -5.0969 C.3       1 <0>         0.0216
     46 O4          3.5002   -5.6865   -0.8055 O.3       1 <0>        -0.5494
     47 H3         -2.1523   -2.6130    0.8601 H         1 <0>         0.0744
     48 H4         -3.6071   -3.2552    0.0606 H         1 <0>         0.0638
     49 H5         -3.3307   -3.5688    1.7908 H         1 <0>         0.0634
     50 H6         -1.6094   -4.6111   -0.5043 H         1 <0>         0.0589
     51 H7         -1.3329   -4.9246    1.2259 H         1 <0>         0.0579
     52 H8         -3.9703   -5.7093    0.5895 H         1 <0>         0.4025
     53 H9         -0.5232   -6.5163   -0.0976 H         1 <0>         0.1213
     54 H10        -1.2961  -10.6842   -0.7384 H         1 <0>         0.1665
     55 H11        -4.5023   -8.0378    0.2522 H         1 <0>         0.1291
     56 H12        -5.6409  -10.2719    0.8463 H         1 <0>         0.0835
     57 H13        -5.7023   -9.5687   -0.7975 H         1 <0>         0.0882
     58 H14        -6.8207  -12.0309   -0.1771 H         1 <0>         0.0995
     59 H15        -6.1631  -11.6510   -1.8040 H         1 <0>         0.0878
     60 H16        -4.8899  -13.2240    0.4583 H         1 <0>         0.1123
     61 H17        -4.7017  -13.4380   -1.3105 H         1 <0>         0.1100
     62 H18         1.2295   -6.9279   -0.4453 H         1 <0>         0.4046
     63 H19         2.8569   -7.0433   -2.8248 H         1 <0>         0.0807
     64 H20         4.2995   -8.0652   -2.6173 H         1 <0>         0.0784
     65 H21         4.1684  -10.4738   -2.9098 H         1 <0>         0.1107
     66 H22         3.0023  -12.3434   -4.0089 H         1 <0>         0.1187
     67 H23         0.6942  -12.0510   -4.8155 H         1 <0>         0.1190
     68 H24        -0.4479   -9.8894   -4.5224 H         1 <0>         0.1160
     69 H25         0.7153   -8.0224   -3.4158 H         1 <0>         0.1096
     70 H26         5.4966   -8.2662   -0.0281 H         1 <0>         0.1485
     71 H27         5.5541   -7.1927   -1.4467 H         1 <0>         0.1497
     72 H28         5.8468   -5.3533    0.0701 H         1 <0>         0.4282
     73 H29         9.3876   -5.6497    0.7211 H         1 <0>         0.1147
     74 H30         8.0646   -4.4823    0.4861 H         1 <0>         0.0915
     75 H31         8.6031   -4.7447    2.8923 H         1 <0>         0.0951
     76 H32         6.9574   -5.3237    2.5391 H         1 <0>         0.0578
     77 H33         9.4477   -7.0730    2.7737 H         1 <0>         0.0811
     78 H34         8.1677   -6.9195    4.0010 H         1 <0>         0.0822
     79 H35         7.8273   -8.9426    2.6081 H         1 <0>         0.0960
     80 H36         6.5044   -7.7752    2.3731 H         1 <0>         0.0571
     81 H37         7.2889   -8.6802    0.2019 H         1 <0>         0.0925
     82 H38         8.9345   -8.1012    0.5552 H         1 <0>         0.1161
     83 H39         6.1953   -5.1608   -1.7569 H         1 <0>         0.1193
     84 H40         6.6830   -5.0847   -4.1680 H         1 <0>         0.1389
     85 H41         8.5682   -6.3746   -5.0856 H         1 <0>         0.1408
     86 H42         9.4854   -7.8082   -1.1653 H         1 <0>         0.1435
     87 H43        10.6069   -6.7632   -5.3682 H         1 <0>         0.0626
     88 H44        11.2691   -8.4154   -5.3670 H         1 <0>         0.1111
     89 H45         9.5281   -8.1546   -5.6296 H         1 <0>         0.0626
     90 H46         3.6971   -5.6314   -1.7507 H         1 <0>         0.3900
     91 H47         5.8609   -6.3814    1.3577 H         1 <0>         0.4277
@<TRIPOS>BOND
     1    1    2 1
     2    1   47 1
     3    1   48 1
     4    1   49 1
     5    2    3 1
     6    2   50 1
     7    2   51 1
     8    3    4 1
     9    3   52 1
    10    4    9 ar
    11    4    5 ar
    12    5    6 ar
    13    5   53 1
    14    6    7 ar
    15    6   16 1
    16    7    8 ar
    17    7   54 1
    18    8    9 ar
    19    8   10 1
    20    9   55 1
    21   10   14 am
    22   10   11 1
    23   11   12 1
    24   11   56 1
    25   11   57 1
    26   12   13 1
    27   12   58 1
    28   12   59 1
    29   13   14 1
    30   13   60 1
    31   13   61 1
    32   14   15 2
    33   16   17 2
    34   16   18 am
    35   18   19 1
    36   18   62 1
    37   19   20 1
    38   19   21 1
    39   19   28 1
    40   21   22 1
    41   21   63 1
    42   21   64 1
    43   22   27 ar
    44   22   23 ar
    45   23   24 ar
    46   23   65 1
    47   24   25 ar
    48   24   66 1
    49   25   26 ar
    50   25   67 1
    51   26   27 ar
    52   26   68 1
    53   27   69 1
    54   28   29 1
    55   28   30 1
    56   28   46 1
    57   30   31 1
    58   30   70 1
    59   30   71 1
    60   31   32 1
    61   31   72 1
    62   31   91 1
    63   32   37 1
    64   32   33 1
    65   32   38 1
    66   33   34 1
    67   33   73 1
    68   33   74 1
    69   34   35 1
    70   34   75 1
    71   34   76 1
    72   35   36 1
    73   35   77 1
    74   35   78 1
    75   36   37 1
    76   36   79 1
    77   36   80 1
    78   37   81 1
    79   37   82 1
    80   38   43 ar
    81   38   39 ar
    82   39   40 ar
    83   39   83 1
    84   40   41 ar
    85   40   84 1
    86   41   42 ar
    87   41   85 1
    88   42   43 ar
    89   42   44 1
    90   43   86 1
    91   44   45 1
    92   45   87 1
    93   45   88 1
    94   45   89 1
    95   46   90 1
@<TRIPOS>MOLECULE
CHEMBL1091343
   55    59     0     0     0
SMALL
USER_CHARGES

@<TRIPOS>ATOM
      1 C1          3.2390    1.3234   -3.6751 C.ar      1 <0>        -0.1533
      2 C2          3.3980    2.0499   -2.5094 C.ar      1 <0>        -0.0829
      3 C3          3.5249    1.3967   -1.2989 C.ar      1 <0>        -0.1469
      4 C4          3.4922    0.0102   -1.2534 C.ar      1 <0>         0.1211
      5 C5          3.3321   -0.7165   -2.4246 C.ar      1 <0>        -0.1960
      6 C6          3.2061   -0.0583   -3.6325 C.ar      1 <0>        -0.0819
      7 O1          3.6173   -0.6348   -0.0640 O.3       1 <0>        -0.2590
      8 C7          3.4795   -1.9865   -0.0538 C.ar      1 <0>         0.0811
      9 C8          2.3102   -2.5598    0.4292 C.ar      1 <0>        -0.1126
     10 C9          2.1664   -3.9306    0.4412 C.ar      1 <0>        -0.0823
     11 C10         3.1982   -4.7431   -0.0334 C.ar      1 <0>         0.0069
     12 C11         4.3720   -4.1627   -0.5186 C.ar      1 <0>        -0.1082
     13 C12         4.5059   -2.7909   -0.5317 C.ar      1 <0>        -0.1254
     14 C13         3.0485   -6.2130   -0.0219 C.2       1 <0>         0.0753
     15 C14         1.8950   -6.9024   -0.2602 C.2       1 <0>        -0.1745
     16 C15         2.1867   -8.2668   -0.1534 C.2       1 <0>        -0.1537
     17 C16         3.5125   -8.3836    0.1478 C.2       1 <0>         0.0508
     18 N1          4.0459   -7.1217    0.2242 N.pl3     1 <0>        -0.4150
     19 C17         5.4437   -6.7993    0.5218 C.3       1 <0>         0.1390
     20 C18         5.6472   -6.7768    2.0148 C.ar      1 <0>         0.1542
     21 C19         6.6314   -7.5629    2.5803 C.ar      1 <0>        -0.2174
     22 C20         6.8144   -7.5383    3.9563 C.ar      1 <0>        -0.0303
     23 C21         5.9976   -6.7205    4.7165 C.ar      1 <0>        -0.2340
     24 C22         5.0261   -5.9550    4.0801 C.ar      1 <0>         0.4095
     25 N2          4.8861   -6.0021    2.7641 N.ar      1 <0>        -0.5179
     26 N3          4.1981   -5.1293    4.8318 N.pl3     1 <0>        -0.8500
     27 C23         4.2472   -9.6493    0.3510 C.ar      1 <0>        -0.0054
     28 C24         5.4520   -9.8759   -0.3173 C.ar      1 <0>        -0.1054
     29 C25         6.1329  -11.0596   -0.1232 C.ar      1 <0>        -0.1110
     30 C26         5.6249  -12.0222    0.7317 C.ar      1 <0>        -0.1050
     31 C27         4.4320  -11.8052    1.3975 C.ar      1 <0>        -0.1075
     32 C28         3.7426  -10.6224    1.2171 C.ar      1 <0>        -0.0173
     33 Cl1         2.2492  -10.3484    2.0588 Cl        1 <0>        -0.0550
     34 H1          3.1359    1.8362   -4.6200 H         1 <0>         0.1252
     35 H2          3.4234    3.1290   -2.5454 H         1 <0>         0.1311
     36 H3          3.6498    1.9645   -0.3888 H         1 <0>         0.1317
     37 H4          3.3067   -1.7957   -2.3920 H         1 <0>         0.1298
     38 H5          3.0818   -0.6233   -4.5445 H         1 <0>         0.1259
     39 H6          1.5128   -1.9306    0.7961 H         1 <0>         0.1343
     40 H7          1.2572   -4.3756    0.8176 H         1 <0>         0.1352
     41 H8          5.1724   -4.7877   -0.8863 H         1 <0>         0.1273
     42 H9          5.4119   -2.3411   -0.9102 H         1 <0>         0.1304
     43 H10         0.9311   -6.4726   -0.4893 H         1 <0>         0.1403
     44 H11         1.4887   -9.0803   -0.2853 H         1 <0>         0.1390
     45 H12         6.0930   -7.5539    0.0779 H         1 <0>         0.1063
     46 H13         5.6872   -5.8211    0.1071 H         1 <0>         0.1154
     47 H14         7.2522   -8.1909    1.9585 H         1 <0>         0.1298
     48 H15         7.5771   -8.1441    4.4228 H         1 <0>         0.1347
     49 H16         6.1124   -6.6773    5.7895 H         1 <0>         0.1308
     50 H17         4.2993   -5.0888    5.7957 H         1 <0>         0.4084
     51 H18         3.5192   -4.5936    4.3924 H         1 <0>         0.4045
     52 H19         5.8498   -9.1261   -0.9851 H         1 <0>         0.1289
     53 H20         7.0647  -11.2360   -0.6399 H         1 <0>         0.1318
     54 H21         6.1623  -12.9473    0.8795 H         1 <0>         0.1336
     55 H22         4.0413  -12.5606    2.0632 H         1 <0>         0.1358
@<TRIPOS>BOND
     1    1    6 ar
     2    1    2 ar
     3    1   34 1
     4    2    3 ar
     5    2   35 1
     6    3    4 ar
     7    3   36 1
     8    4    5 ar
     9    4    7 1
    10    5    6 ar
    11    5   37 1
    12    6   38 1
    13    7    8 1
    14    8   13 ar
    15    8    9 ar
    16    9   10 ar
    17    9   39 1
    18   10   11 ar
    19   10   40 1
    20   11   12 ar
    21   11   14 1
    22   12   13 ar
    23   12   41 1
    24   13   42 1
    25   14   18 1
    26   14   15 2
    27   15   16 1
    28   15   43 1
    29   16   17 2
    30   16   44 1
    31   17   18 1
    32   17   27 1
    33   18   19 1
    34   19   20 1
    35   19   45 1
    36   19   46 1
    37   20   25 ar
    38   20   21 ar
    39   21   22 ar
    40   21   47 1
    41   22   23 ar
    42   22   48 1
    43   23   24 ar
    44   23   49 1
    45   24   25 ar
    46   24   26 1
    47   26   50 1
    48   26   51 1
    49   27   32 ar
    50   27   28 ar
    51   28   29 ar
    52   28   52 1
    53   29   30 ar
    54   29   53 1
    55   30   31 ar
    56   30   54 1
    57   31   32 ar
    58   31   55 1
    59   32   33 1
@<TRIPOS>MOLECULE
CHEMBL1091219
   54    58     0     0     0
SMALL
USER_CHARGES

@<TRIPOS>ATOM
      1 C1          1.8757    1.3724   -1.9784 C.ar      1 <0>        -0.1158
      2 C2          1.2410    2.2293   -1.0962 C.ar      1 <0>        -0.1046
      3 C3          0.6693    1.7390    0.0640 C.ar      1 <0>        -0.1100
      4 C4          0.7284    0.3892    0.3492 C.ar      1 <0>        -0.0312
      5 C5          1.3673   -0.4810   -0.5376 C.ar      1 <0>         0.0115
      6 C6          1.9423    0.0219   -1.7064 C.ar      1 <0>        -0.0700
      7 C7          1.4352   -1.9265   -0.2395 C.2       1 <0>         0.0832
      8 C8          2.5757   -2.6590   -0.0822 C.2       1 <0>        -0.1768
      9 C9          2.1978   -3.9790    0.1880 C.2       1 <0>        -0.1619
     10 C10         0.8339   -4.0263    0.1904 C.2       1 <0>         0.0465
     11 N1          0.3623   -2.7644   -0.0669 N.pl3     1 <0>        -0.4100
     12 C11        -1.0483   -2.3772   -0.1474 C.3       1 <0>         0.1352
     13 C12        -1.4783   -2.3434   -1.5914 C.ar      1 <0>         0.1535
     14 C13        -2.5931   -3.0554   -1.9871 C.ar      1 <0>        -0.2295
     15 C14        -2.9847   -3.0207   -3.3187 C.ar      1 <0>        -0.0264
     16 C15        -2.2377   -2.2682   -4.2072 C.ar      1 <0>        -0.2336
     17 C16        -1.1259   -1.5757   -3.7392 C.ar      1 <0>         0.4115
     18 N2         -0.7877   -1.6297   -2.4600 N.ar      1 <0>        -0.5165
     19 N3         -0.3660   -0.8161   -4.6211 N.pl3     1 <0>        -0.8490
     20 C17         0.0085   -5.2276    0.4329 C.ar      1 <0>        -0.0015
     21 C18        -1.2708   -5.3212   -0.1191 C.ar      1 <0>        -0.1278
     22 C19        -2.0376   -6.4436    0.1096 C.ar      1 <0>        -0.1094
     23 C20        -1.5395   -7.4804    0.8879 C.ar      1 <0>         0.0719
     24 C21        -0.2677   -7.3913    1.4387 C.ar      1 <0>        -0.1199
     25 C22         0.5078   -6.2749    1.2101 C.ar      1 <0>        -0.0872
     26 O1         -2.2987   -8.5849    1.1113 O.3       1 <0>        -0.2507
     27 C23        -2.8985   -8.7115    2.3223 C.ar      1 <0>         0.1635
     28 C24        -3.5868   -9.8743    2.6603 C.ar      1 <0>        -0.2007
     29 C25        -4.1826   -9.9643    3.9015 C.ar      1 <0>         0.1335
     30 N4         -4.1064   -8.9668    4.7621 N.ar      1 <0>        -0.5054
     31 C26        -3.4637   -7.8496    4.4787 C.ar      1 <0>         0.1353
     32 C27        -2.8365   -7.6842    3.2609 C.ar      1 <0>        -0.2480
     33 Cl1         0.0110   -0.2248    1.8059 Cl        1 <0>        -0.0643
     34 H1          2.3163    1.7617   -2.8844 H         1 <0>         0.1296
     35 H2          1.1921    3.2859   -1.3146 H         1 <0>         0.1309
     36 H3          0.1761    2.4133    0.7485 H         1 <0>         0.1329
     37 H4          2.4378   -0.6453   -2.3961 H         1 <0>         0.1307
     38 H5          3.5872   -2.2873   -0.1538 H         1 <0>         0.1403
     39 H6          2.8650   -4.8101    0.3630 H         1 <0>         0.1410
     40 H7         -1.6554   -3.1014    0.3957 H         1 <0>         0.1100
     41 H8         -1.1796   -1.3892    0.2940 H         1 <0>         0.1151
     42 H9         -3.1546   -3.6336   -1.2683 H         1 <0>         0.1336
     43 H10        -3.8528   -3.5692   -3.6534 H         1 <0>         0.1371
     44 H11        -2.5138   -2.2194   -5.2502 H         1 <0>         0.1324
     45 H12        -0.6119   -0.7706   -5.5583 H         1 <0>         0.4091
     46 H13         0.4102   -0.3314   -4.2993 H         1 <0>         0.4034
     47 H14        -1.6590   -4.5152   -0.7241 H         1 <0>         0.1424
     48 H15        -3.0272   -6.5166   -0.3166 H         1 <0>         0.1343
     49 H16         0.1158   -8.1996    2.0436 H         1 <0>         0.1347
     50 H17         1.4984   -6.2083    1.6351 H         1 <0>         0.1384
     51 H18        -3.6535  -10.6941    1.9604 H         1 <0>         0.1446
     52 H19        -4.7184  -10.8622    4.1720 H         1 <0>         0.1653
     53 H20        -3.4248   -7.0564    5.2106 H         1 <0>         0.1594
     54 H21        -2.3082   -6.7692    3.0370 H         1 <0>         0.1393
@<TRIPOS>BOND
     1    1    6 ar
     2    1    2 ar
     3    1   34 1
     4    2    3 ar
     5    2   35 1
     6    3    4 ar
     7    3   36 1
     8    4    5 ar
     9    4   33 1
    10    5    6 ar
    11    5    7 1
    12    6   37 1
    13    7   11 1
    14    7    8 2
    15    8    9 1
    16    8   38 1
    17    9   10 2
    18    9   39 1
    19   10   11 1
    20   10   20 1
    21   11   12 1
    22   12   13 1
    23   12   40 1
    24   12   41 1
    25   13   18 ar
    26   13   14 ar
    27   14   15 ar
    28   14   42 1
    29   15   16 ar
    30   15   43 1
    31   16   17 ar
    32   16   44 1
    33   17   18 ar
    34   17   19 1
    35   19   45 1
    36   19   46 1
    37   20   25 ar
    38   20   21 ar
    39   21   22 ar
    40   21   47 1
    41   22   23 ar
    42   22   48 1
    43   23   24 ar
    44   23   26 1
    45   24   25 ar
    46   24   49 1
    47   25   50 1
    48   26   27 1
    49   27   32 ar
    50   27   28 ar
    51   28   29 ar
    52   28   51 1
    53   29   30 ar
    54   29   52 1
    55   30   31 ar
    56   31   32 ar
    57   31   53 1
    58   32   54 1
@<TRIPOS>MOLECULE
CHEMBL1091219__1
   55    59     0     0     0
SMALL
USER_CHARGES

@<TRIPOS>ATOM
      1 C1          1.8757    1.3724   -1.9784 C.ar      1 <0>        -0.1139
      2 C2          1.2410    2.2293   -1.0962 C.ar      1 <0>        -0.0999
      3 C3          0.6693    1.7390    0.0640 C.ar      1 <0>        -0.1092
      4 C4          0.7284    0.3892    0.3492 C.ar      1 <0>        -0.0292
      5 C5          1.3673   -0.4810   -0.5376 C.ar      1 <0>         0.0026
      6 C6          1.9423    0.0219   -1.7064 C.ar      1 <0>        -0.0683
      7 C7          1.4352   -1.9265   -0.2395 C.2       1 <0>         0.1010
      8 C8          2.5757   -2.6590   -0.0822 C.2       1 <0>        -0.1788
      9 C9          2.1978   -3.9790    0.1880 C.2       1 <0>        -0.1472
     10 C10         0.8339   -4.0263    0.1904 C.2       1 <0>         0.0223
     11 N1          0.3623   -2.7644   -0.0669 N.pl3     1 <0>        -0.4100
     12 C11        -1.0483   -2.3772   -0.1474 C.3       1 <0>         0.1361
     13 C12        -1.4783   -2.3434   -1.5914 C.ar      1 <0>         0.1510
     14 C13        -2.5931   -3.0554   -1.9871 C.ar      1 <0>        -0.2353
     15 C14        -2.9847   -3.0207   -3.3187 C.ar      1 <0>        -0.0255
     16 C15        -2.2377   -2.2682   -4.2072 C.ar      1 <0>        -0.2315
     17 C16        -1.1259   -1.5757   -3.7392 C.ar      1 <0>         0.4159
     18 N2         -0.7877   -1.6297   -2.4600 N.ar      1 <0>        -0.5173
     19 N3         -0.3660   -0.8161   -4.6211 N.pl3     1 <0>        -0.8462
     20 C17         0.0085   -5.2276    0.4329 C.ar      1 <0>         0.0315
     21 C18        -1.2708   -5.3212   -0.1191 C.ar      1 <0>        -0.1315
     22 C19        -2.0376   -6.4436    0.1096 C.ar      1 <0>        -0.0916
     23 C20        -1.5395   -7.4804    0.8879 C.ar      1 <0>         0.0199
     24 C21        -0.2677   -7.3913    1.4387 C.ar      1 <0>        -0.1090
     25 C22         0.5078   -6.2749    1.2101 C.ar      1 <0>        -0.0912
     26 O1         -2.2987   -8.5849    1.1113 O.3       1 <0>        -0.2092
     27 C23        -2.8985   -8.7115    2.3223 C.ar      1 <0>         0.2464
     28 C24        -3.5868   -9.8743    2.6603 C.ar      1 <0>        -0.1597
     29 C25        -4.1826   -9.9643    3.9015 C.ar      1 <0>         0.1642
     30 N4         -4.1064   -8.9668    4.7621 N.ar      1 <0>        -0.4721
     31 C26        -3.4640   -7.8494    4.4785 C.ar      1 <0>         0.1687
     32 C27        -2.8365   -7.6842    3.2609 C.ar      1 <0>        -0.2125
     33 Cl1         0.0110   -0.2248    1.8059 Cl        1 <0>        -0.0684
     34 H1          2.3163    1.7617   -2.8844 H         1 <0>         0.1322
     35 H2          1.1921    3.2859   -1.3146 H         1 <0>         0.1336
     36 H3          0.1761    2.4133    0.7485 H         1 <0>         0.1346
     37 H4          2.4378   -0.6453   -2.3961 H         1 <0>         0.1317
     38 H5          3.5872   -2.2873   -0.1538 H         1 <0>         0.1444
     39 H6          2.8650   -4.8101    0.3630 H         1 <0>         0.1432
     40 H7         -1.6554   -3.1014    0.3957 H         1 <0>         0.1065
     41 H8         -1.1796   -1.3892    0.2940 H         1 <0>         0.1172
     42 H9         -3.1546   -3.6336   -1.2683 H         1 <0>         0.1302
     43 H10        -3.8528   -3.5692   -3.6534 H         1 <0>         0.1374
     44 H11        -2.5138   -2.2194   -5.2502 H         1 <0>         0.1347
     45 H12        -0.6119   -0.7706   -5.5583 H         1 <0>         0.4113
     46 H13         0.4102   -0.3314   -4.2993 H         1 <0>         0.4048
     47 H14        -1.6590   -4.5152   -0.7241 H         1 <0>         0.1508
     48 H15        -3.0272   -6.5166   -0.3166 H         1 <0>         0.1403
     49 H16         0.1158   -8.1996    2.0436 H         1 <0>         0.1389
     50 H17         1.4984   -6.2083    1.6351 H         1 <0>         0.1464
     51 H18        -3.6535  -10.6941    1.9604 H         1 <0>         0.1929
     52 H19        -4.7184  -10.8622    4.1720 H         1 <0>         0.2167
     53 H20        -3.4255   -7.0561    5.2103 H         1 <0>         0.2118
     54 H21        -2.3082   -6.7692    3.0370 H         1 <0>         0.1853
     55 H22        -4.5351   -9.0572    5.6275 H         1 <0>         0.4531
@<TRIPOS>BOND
     1    1    6 ar
     2    1    2 ar
     3    1   34 1
     4    2    3 ar
     5    2   35 1
     6    3    4 ar
     7    3   36 1
     8    4    5 ar
     9    4   33 1
    10    5    6 ar
    11    5    7 1
    12    6   37 1
    13    7   11 1
    14    7    8 2
    15    8    9 1
    16    8   38 1
    17    9   10 2
    18    9   39 1
    19   10   11 1
    20   10   20 1
    21   11   12 1
    22   12   13 1
    23   12   40 1
    24   12   41 1
    25   13   18 ar
    26   13   14 ar
    27   14   15 ar
    28   14   42 1
    29   15   16 ar
    30   15   43 1
    31   16   17 ar
    32   16   44 1
    33   17   18 ar
    34   17   19 1
    35   19   45 1
    36   19   46 1
    37   20   25 ar
    38   20   21 ar
    39   21   22 ar
    40   21   47 1
    41   22   23 ar
    42   22   48 1
    43   23   24 ar
    44   23   26 1
    45   24   25 ar
    46   24   49 1
    47   25   50 1
    48   26   27 1
    49   27   32 ar
    50   27   28 ar
    51   28   29 ar
    52   28   51 1
    53   29   30 ar
    54   29   52 1
    55   30   31 ar
    56   30   55 1
    57   31   32 ar
    58   31   53 1
    59   32   54 1
@<TRIPOS>MOLECULE
CHEMBL570298
   71    73     0     0     0
SMALL
USER_CHARGES

@<TRIPOS>ATOM
      1 C1         -2.8407    1.0371   -0.0939 C.3       1 <0>        -0.1848
      2 C2         -2.8046   -0.4630    0.0466 C.2       1 <0>         0.5133
      3 O1         -1.9143   -1.0997   -0.4758 O.2       1 <0>        -0.5325
      4 N1         -3.7616   -1.0969    0.7527 N.am      1 <0>        -0.7318
      5 C3         -3.7266   -2.5551    0.8893 C.3       1 <0>         0.1319
      6 H1         -4.5747   -2.8843    1.4896 H         1 <0>         0.1063
      7 C4         -3.8021   -3.1990   -0.4966 C.3       1 <0>        -0.0983
      8 C5         -5.1375   -2.8892   -1.1224 C.ar      1 <0>        -0.0287
      9 C6         -6.2093   -3.7375   -0.9180 C.ar      1 <0>        -0.1645
     10 C7         -7.4367   -3.4541   -1.4929 C.ar      1 <0>         0.1402
     11 C8         -7.5902   -2.3205   -2.2721 C.ar      1 <0>        -0.1921
     12 C9         -6.5162   -1.4713   -2.4758 C.ar      1 <0>         0.1386
     13 C10        -5.2910   -1.7540   -1.8956 C.ar      1 <0>        -0.1581
     14 F1         -6.6645   -0.3645   -3.2361 F         1 <0>        -0.1259
     15 F2         -8.4840   -4.2840   -1.2936 F         1 <0>        -0.1253
     16 C11        -2.4239   -2.9719    1.5751 C.3       1 <0>         0.0691
     17 H2         -1.5758   -2.6427    0.9748 H         1 <0>         0.1467
     18 C12        -2.3484   -2.3280    2.9609 C.3       1 <0>        -0.0618
     19 N2         -1.0467   -2.6300    3.5709 N.4       1 <0>        -0.4997
     20 C13        -0.9599   -1.9812    4.8861 C.3       1 <0>         0.1117
     21 C14         0.3860   -2.3173    5.5397 C.3       1 <0>        -0.1477
     22 C15         0.5712   -3.8352    5.5265 C.3       1 <0>         0.0852
     23 N3         -0.6062   -4.4976    6.0736 N.am      1 <0>        -0.7251
     24 C16        -1.8052   -3.9237    6.1802 C.2       1 <0>         0.5018
     25 O2         -2.7226   -4.5874    6.6148 O.2       1 <0>        -0.5118
     26 C17        -2.0802   -2.4995    5.7913 C.3       1 <0>        -0.1538
     27 C18        -1.0877   -0.4884    4.7247 C.ar      1 <0>        -0.1249
     28 C19        -0.7448    0.1093    3.5261 C.ar      1 <0>        -0.1357
     29 C20        -0.8620    1.4784    3.3781 C.ar      1 <0>        -0.0938
     30 C21        -1.3225    2.2504    4.4286 C.ar      1 <0>        -0.0943
     31 C22        -1.6661    1.6529    5.6266 C.ar      1 <0>        -0.0422
     32 C23        -1.5529    0.2827    5.7732 C.ar      1 <0>        -0.0877
     33 C24        -2.1676    2.4943    6.7718 C.3       1 <0>        -0.0354
     34 C25        -2.2004    3.9642    6.3485 C.3       1 <0>        -0.1512
     35 C26        -3.5778    2.0430    7.1570 C.3       1 <0>        -0.1421
     36 C27        -1.2337    2.3301    7.9725 C.3       1 <0>        -0.1429
     37 O3         -2.3897   -4.3943    1.7082 O.3       1 <0>        -0.5427
     38 H3         -1.9926    1.3663   -0.6942 H         1 <0>         0.1002
     39 H4         -3.7687    1.3340   -0.5824 H         1 <0>         0.0959
     40 H5         -2.7869    1.4958    0.8934 H         1 <0>         0.0908
     41 H6         -4.4737   -0.5876    1.1706 H         1 <0>         0.4121
     42 H7         -3.0052   -2.8021   -1.1255 H         1 <0>         0.1087
     43 H8         -3.6867   -4.2788   -0.4022 H         1 <0>         0.1017
     44 H9         -6.0893   -4.6220   -0.3099 H         1 <0>         0.1433
     45 H10        -8.5471   -2.0988   -2.7212 H         1 <0>         0.1524
     46 H11        -4.4541   -1.0893   -2.0507 H         1 <0>         0.1361
     47 H12        -2.4638   -1.2482    2.8666 H         1 <0>         0.1506
     48 H13        -3.1453   -2.7249    3.5899 H         1 <0>         0.1387
     49 H14        -0.9505   -3.6283    3.6813 H         1 <0>         0.4308
     50 H15         1.1928   -1.8455    4.9789 H         1 <0>         0.1184
     51 H16         0.3930   -1.9570    6.5684 H         1 <0>         0.1255
     52 H17         0.7292   -4.1699    4.5013 H         1 <0>         0.0720
     53 H18         1.4431   -4.0969    6.1260 H         1 <0>         0.1149
     54 H19        -0.5118   -5.4134    6.3790 H         1 <0>         0.4184
     55 H20        -2.1349   -1.8832    6.6887 H         1 <0>         0.1495
     56 H21        -3.0297   -2.4465    5.2587 H         1 <0>         0.1266
     57 H22        -0.3851   -0.4937    2.7055 H         1 <0>         0.1149
     58 H23        -0.5935    1.9454    2.4420 H         1 <0>         0.1371
     59 H24        -1.4134    3.3204    4.3132 H         1 <0>         0.1416
     60 H25        -1.8250   -0.1846    6.7080 H         1 <0>         0.1336
     61 H26        -2.8657    4.0812    5.4931 H         1 <0>         0.0614
     62 H27        -2.5631    4.5729    7.1768 H         1 <0>         0.0678
     63 H28        -1.1957    4.2858    6.0741 H         1 <0>         0.0620
     64 H29        -3.5545    0.9958    7.4586 H         1 <0>         0.0555
     65 H30        -3.9406    2.6516    7.9853 H         1 <0>         0.0684
     66 H31        -4.2431    2.1600    6.3016 H         1 <0>         0.0590
     67 H32        -0.2290    2.6517    7.6981 H         1 <0>         0.0600
     68 H33        -1.5964    2.9387    8.8009 H         1 <0>         0.0683
     69 H34        -1.2104    1.2829    8.2741 H         1 <0>         0.0556
     70 H35        -3.1168   -4.7579    2.2318 H         1 <0>         0.3887
     71 H36        -0.3083   -2.2847    2.9762 H         1 <0>         0.4295
@<TRIPOS>BOND
     1    1    2 1
     2    1   38 1
     3    1   39 1
     4    1   40 1
     5    2    3 2
     6    2    4 am
     7    4    5 1
     8    4   41 1
     9    5    6 1
    10    5    7 1
    11    5   16 1
    12    7    8 1
    13    7   42 1
    14    7   43 1
    15    8   13 ar
    16    8    9 ar
    17    9   10 ar
    18    9   44 1
    19   10   11 ar
    20   10   15 1
    21   11   12 ar
    22   11   45 1
    23   12   13 ar
    24   12   14 1
    25   13   46 1
    26   16   17 1
    27   16   18 1
    28   16   37 1
    29   18   19 1
    30   18   47 1
    31   18   48 1
    32   19   20 1
    33   19   49 1
    34   19   71 1
    35   20   26 1
    36   20   21 1
    37   20   27 1
    38   21   22 1
    39   21   50 1
    40   21   51 1
    41   22   23 1
    42   22   52 1
    43   22   53 1
    44   23   24 am
    45   23   54 1
    46   24   25 2
    47   24   26 1
    48   26   55 1
    49   26   56 1
    50   27   32 ar
    51   27   28 ar
    52   28   29 ar
    53   28   57 1
    54   29   30 ar
    55   29   58 1
    56   30   31 ar
    57   30   59 1
    58   31   32 ar
    59   31   33 1
    60   32   60 1
    61   33   34 1
    62   33   35 1
    63   33   36 1
    64   34   61 1
    65   34   62 1
    66   34   63 1
    67   35   64 1
    68   35   65 1
    69   35   66 1
    70   36   67 1
    71   36   68 1
    72   36   69 1
    73   37   70 1
@<TRIPOS>MOLECULE
CHEMBL570298__1
   71    73     0     0     0
SMALL
USER_CHARGES

@<TRIPOS>ATOM
      1 C1         -0.3936    2.3760    0.4805 C.3       1 <0>        -0.1845
      2 C2         -0.5834    0.8994    0.2468 C.2       1 <0>         0.5134
      3 O1          0.3588    0.2120   -0.0858 O.2       1 <0>        -0.5325
      4 N1         -1.8002    0.3426    0.4075 N.am      1 <0>        -0.7340
      5 C3         -1.9847   -1.0929    0.1803 C.3       1 <0>         0.1326
      6 H1         -3.0271   -1.3577    0.3574 H         1 <0>         0.1063
      7 C4         -1.6104   -1.4329   -1.2637 C.3       1 <0>        -0.0985
      8 C5         -2.5713   -0.7536   -2.2051 C.ar      1 <0>        -0.0286
      9 C6         -3.7309   -1.3982   -2.5921 C.ar      1 <0>        -0.1646
     10 C7         -4.6144   -0.7751   -3.4574 C.ar      1 <0>         0.1396
     11 C8         -4.3359    0.4941   -3.9344 C.ar      1 <0>        -0.1922
     12 C9         -3.1744    1.1390   -3.5458 C.ar      1 <0>         0.1392
     13 C10        -2.2950    0.5160   -2.6763 C.ar      1 <0>        -0.1580
     14 F1         -2.9014    2.3777   -4.0106 F         1 <0>        -0.1256
     15 F2         -5.7474   -1.4059   -3.8362 F         1 <0>        -0.1256
     16 C11        -1.0886   -1.8802    1.1384 C.3       1 <0>         0.0690
     17 H2         -0.0462   -1.6153    0.9613 H         1 <0>         0.1463
     18 C12        -1.4630   -1.5401    2.5824 C.3       1 <0>        -0.0602
     19 N2         -0.5263   -2.2024    3.5000 N.4       1 <0>        -0.5003
     20 C13        -0.9599   -1.9812    4.8861 C.3       1 <0>         0.1120
     21 C14         0.0501   -2.6151    5.8503 C.3       1 <0>        -0.1475
     22 C15         1.4491   -2.1096    5.4959 C.3       1 <0>         0.0850
     23 N3          1.4573   -0.6551    5.4018 N.am      1 <0>        -0.7259
     24 C16         0.3637    0.0896    5.2355 C.2       1 <0>         0.5016
     25 O2          0.4977    1.2903    5.1293 O.2       1 <0>        -0.5111
     26 C17        -1.0248   -0.4789    5.1723 C.3       1 <0>        -0.1540
     27 C18        -2.3191   -2.5971    5.0968 C.ar      1 <0>        -0.1244
     28 C19        -2.7446   -3.6289    4.2808 C.ar      1 <0>        -0.1396
     29 C20        -3.9911   -4.1937    4.4741 C.ar      1 <0>        -0.0928
     30 C21        -4.8124   -3.7271    5.4837 C.ar      1 <0>        -0.0952
     31 C22        -4.3867   -2.6963    6.3000 C.ar      1 <0>        -0.0418
     32 C23        -3.1380   -2.1342    6.1094 C.ar      1 <0>        -0.0882
     33 C24        -5.2821   -2.1875    7.4002 C.3       1 <0>        -0.0357
     34 C25        -6.5930   -2.9764    7.3968 C.3       1 <0>        -0.1515
     35 C26        -4.5834   -2.3653    8.7497 C.3       1 <0>        -0.1428
     36 C27        -5.5790   -0.7041    7.1712 C.3       1 <0>        -0.1421
     37 O3         -1.2686   -3.2804    0.9168 O.3       1 <0>        -0.5414
     38 H3          0.6488    2.6408    0.3034 H         1 <0>         0.1001
     39 H4         -1.0320    2.9369   -0.2020 H         1 <0>         0.0961
     40 H5         -0.6603    2.6183    1.5093 H         1 <0>         0.0930
     41 H6         -2.5538    0.8923    0.6735 H         1 <0>         0.4124
     42 H7         -0.5968   -1.0874   -1.4673 H         1 <0>         0.1085
     43 H8         -1.6622   -2.5121   -1.4080 H         1 <0>         0.1017
     44 H9         -3.9480   -2.3885   -2.2197 H         1 <0>         0.1430
     45 H10        -5.0242    0.9807   -4.6096 H         1 <0>         0.1523
     46 H11        -1.3908    1.0207   -2.3695 H         1 <0>         0.1364
     47 H12        -1.4111   -0.4609    2.7267 H         1 <0>         0.1415
     48 H13        -2.4765   -1.8856    2.7860 H         1 <0>         0.1466
     49 H14        -0.5096   -3.1925    3.3068 H         1 <0>         0.4329
     50 H15        -0.1933   -2.3304    6.8739 H         1 <0>         0.1255
     51 H16         0.0176   -3.7002    5.7525 H         1 <0>         0.1188
     52 H17         2.1521   -2.4247    6.2670 H         1 <0>         0.1154
     53 H18         1.7541   -2.5343    4.5395 H         1 <0>         0.0712
     54 H19         2.3118   -0.2004    5.4643 H         1 <0>         0.4185
     55 H20        -1.5833    0.0171    4.3785 H         1 <0>         0.1261
     56 H21        -1.5276   -0.3133    6.1250 H         1 <0>         0.1494
     57 H22        -2.1030   -3.9933    3.4921 H         1 <0>         0.1180
     58 H23        -4.3238   -4.9992    3.8362 H         1 <0>         0.1381
     59 H24        -5.7868   -4.1680    5.6343 H         1 <0>         0.1415
     60 H25        -2.8038   -1.3312    6.7497 H         1 <0>         0.1333
     61 H26        -6.3815   -4.0332    7.5600 H         1 <0>         0.0620
     62 H27        -7.2406   -2.6084    8.1926 H         1 <0>         0.0679
     63 H28        -7.0908   -2.8497    6.4354 H         1 <0>         0.0615
     64 H29        -3.6495   -1.8032    8.7522 H         1 <0>         0.0556
     65 H30        -5.2310   -1.9973    9.5455 H         1 <0>         0.0683
     66 H31        -4.3719   -3.4220    8.9129 H         1 <0>         0.0600
     67 H32        -6.0768   -0.5775    6.2098 H         1 <0>         0.0591
     68 H33        -6.2266   -0.3361    7.9669 H         1 <0>         0.0685
     69 H34        -4.6451   -0.1421    7.1736 H         1 <0>         0.0555
     70 H35        -2.1749   -3.5874    1.0565 H         1 <0>         0.3867
     71 H36         0.3981   -1.8190    3.3716 H         1 <0>         0.4277
@<TRIPOS>BOND
     1    1    2 1
     2    1   38 1
     3    1   39 1
     4    1   40 1
     5    2    3 2
     6    2    4 am
     7    4    5 1
     8    4   41 1
     9    5    6 1
    10    5    7 1
    11    5   16 1
    12    7    8 1
    13    7   42 1
    14    7   43 1
    15    8   13 ar
    16    8    9 ar
    17    9   10 ar
    18    9   44 1
    19   10   11 ar
    20   10   15 1
    21   11   12 ar
    22   11   45 1
    23   12   13 ar
    24   12   14 1
    25   13   46 1
    26   16   17 1
    27   16   18 1
    28   16   37 1
    29   18   19 1
    30   18   47 1
    31   18   48 1
    32   19   20 1
    33   19   49 1
    34   19   71 1
    35   20   26 1
    36   20   21 1
    37   20   27 1
    38   21   22 1
    39   21   50 1
    40   21   51 1
    41   22   23 1
    42   22   52 1
    43   22   53 1
    44   23   24 am
    45   23   54 1
    46   24   25 2
    47   24   26 1
    48   26   55 1
    49   26   56 1
    50   27   32 ar
    51   27   28 ar
    52   28   29 ar
    53   28   57 1
    54   29   30 ar
    55   29   58 1
    56   30   31 ar
    57   30   59 1
    58   31   32 ar
    59   31   33 1
    60   32   60 1
    61   33   34 1
    62   33   35 1
    63   33   36 1
    64   34   61 1
    65   34   62 1
    66   34   63 1
    67   35   64 1
    68   35   65 1
    69   35   66 1
    70   36   67 1
    71   36   68 1
    72   36   69 1
    73   37   70 1
@<TRIPOS>MOLECULE
CHEMBL605518
   59    63     0     0     0
SMALL
USER_CHARGES

@<TRIPOS>ATOM
      1 C1          0.0098    1.4826   -0.1207 C.3       1 <0>         0.0609
      2 N1          0.0354    0.0184   -0.0809 N.am      1 <0>        -0.5556
      3 C2         -1.0618   -0.7597   -0.0205 C.2       1 <0>         0.5404
      4 O1         -2.2150   -0.3861    0.0099 O.2       1 <0>        -0.3956
      5 C3         -0.5732   -2.1922    0.0016 C.3       1 <0>         0.1819
      6 N2          0.8933   -2.0796   -0.0536 N.pl3     1 <0>        -0.6595
      7 C4          1.1816   -0.7382   -0.1062 C.cat     1 <0>         0.7284
      8 N3          2.3855   -0.2469   -0.1688 N.pl3     1 <0>        -0.7357
      9 C5         -1.0892   -2.9430   -1.1989 C.ar      1 <0>        -0.0983
     10 C6         -0.2041   -3.4171   -2.1500 C.ar      1 <0>        -0.1204
     11 C7         -0.6733   -4.1067   -3.2526 C.ar      1 <0>        -0.0883
     12 C8         -2.0285   -4.3244   -3.4076 C.ar      1 <0>        -0.0977
     13 C9         -2.9199   -3.8497   -2.4545 C.ar      1 <0>         0.1655
     14 C10        -2.4448   -3.1618   -1.3452 C.ar      1 <0>        -0.1159
     15 N4         -4.2927   -4.0681   -2.6086 N.am      1 <0>        -0.6723
     16 C11        -4.7347   -5.2141   -3.1633 C.2       1 <0>         0.5729
     17 O2         -3.9402   -6.0212   -3.6061 O.2       1 <0>        -0.5068
     18 C12        -6.1828   -5.4895   -3.2333 C.ar      1 <0>        -0.1395
     19 C13        -7.0974   -4.5607   -2.7304 C.ar      1 <0>        -0.0697
     20 C14        -8.4489   -4.8195   -2.7967 C.ar      1 <0>        -0.1085
     21 C15        -8.9072   -6.0018   -3.3624 C.ar      1 <0>         0.0729
     22 C16        -7.9990   -6.9335   -3.8669 C.ar      1 <0>         0.0276
     23 C17        -6.6430   -6.6771   -3.8080 C.ar      1 <0>        -0.0364
     24 O3         -8.6966   -7.9975   -4.3622 O.3       1 <0>        -0.3013
     25 C18       -10.0130   -7.8938   -3.7883 C.3       1 <0>         0.2114
     26 O4        -10.1700   -6.4838   -3.5433 O.3       1 <0>        -0.3008
     27 C19        -1.0078   -2.8853    1.2945 C.3       1 <0>        -0.0811
     28 C20        -0.5234   -2.0724    2.4967 C.3       1 <0>        -0.1222
     29 C21        -0.9580   -2.7655    3.7896 C.3       1 <0>        -0.1185
     30 C22        -0.3509   -4.1688    3.8449 C.3       1 <0>        -0.1238
     31 C23        -0.8354   -4.9818    2.6427 C.3       1 <0>        -0.1212
     32 C24        -0.4007   -4.2886    1.3498 C.3       1 <0>        -0.1117
     33 H1          1.0301    1.8626   -0.1723 H         1 <0>         0.0981
     34 H2         -0.5456    1.8126   -0.9987 H         1 <0>         0.1092
     35 H3         -0.4742    1.8622    0.7792 H         1 <0>         0.1095
     36 H4          2.5162    0.7138   -0.2006 H         1 <0>         0.4478
     37 H5          0.8560   -3.2479   -2.0313 H         1 <0>         0.1204
     38 H6          0.0205   -4.4753   -3.9937 H         1 <0>         0.1386
     39 H7         -2.3944   -4.8629   -4.2693 H         1 <0>         0.1512
     40 H8         -3.1351   -2.7949   -0.6001 H         1 <0>         0.1383
     41 H9         -4.9267   -3.3946   -2.3164 H         1 <0>         0.4156
     42 H10        -6.7449   -3.6401   -2.2892 H         1 <0>         0.1410
     43 H11        -9.1543   -4.1004   -2.4070 H         1 <0>         0.1480
     44 H12        -5.9392   -7.3956   -4.2016 H         1 <0>         0.1522
     45 H13       -10.7666   -8.2462   -4.4926 H         1 <0>         0.1405
     46 H14       -10.0688   -8.4532   -2.8545 H         1 <0>         0.0929
     47 H15        -2.0951   -2.9586    1.3197 H         1 <0>         0.1143
     48 H16         0.5638   -1.9991    2.4715 H         1 <0>         0.0634
     49 H17        -0.9559   -1.0726    2.4573 H         1 <0>         0.0609
     50 H18        -0.6129   -2.1863    4.6461 H         1 <0>         0.0716
     51 H19        -2.0453   -2.8387    3.8148 H         1 <0>         0.0711
     52 H20         0.7363   -4.0956    3.8196 H         1 <0>         0.0626
     53 H21        -0.6606   -4.6626    4.7659 H         1 <0>         0.0718
     54 H22        -0.4029   -5.9815    2.6820 H         1 <0>         0.0739
     55 H23        -1.9226   -5.0550    2.6679 H         1 <0>         0.0699
     56 H24        -0.7459   -4.8678    0.4933 H         1 <0>         0.0797
     57 H25         0.6865   -4.2154    1.3245 H         1 <0>         0.0618
     58 H26         1.5313   -2.8103   -0.0562 H         1 <0>         0.4631
     59 H27         3.1518   -0.8414   -0.1836 H         1 <0>         0.4518
@<TRIPOS>BOND
     1    1    2 1
     2    1   33 1
     3    1   34 1
     4    1   35 1
     5    2    7 1
     6    2    3 am
     7    3    4 2
     8    3    5 1
     9    5    6 1
    10    5    9 1
    11    5   27 1
    12    6    7 1
    13    6   58 1
    14    7    8 2
    15    8   36 1
    16    8   59 1
    17    9   14 ar
    18    9   10 ar
    19   10   11 ar
    20   10   37 1
    21   11   12 ar
    22   11   38 1
    23   12   13 ar
    24   12   39 1
    25   13   14 ar
    26   13   15 1
    27   14   40 1
    28   15   16 am
    29   15   41 1
    30   16   17 2
    31   16   18 1
    32   18   23 ar
    33   18   19 ar
    34   19   20 ar
    35   19   42 1
    36   20   21 ar
    37   20   43 1
    38   21   26 1
    39   21   22 ar
    40   22   23 ar
    41   22   24 1
    42   23   44 1
    43   24   25 1
    44   25   26 1
    45   25   45 1
    46   25   46 1
    47   27   32 1
    48   27   28 1
    49   27   47 1
    50   28   29 1
    51   28   48 1
    52   28   49 1
    53   29   30 1
    54   29   50 1
    55   29   51 1
    56   30   31 1
    57   30   52 1
    58   30   53 1
    59   31   32 1
    60   31   54 1
    61   31   55 1
    62   32   56 1
    63   32   57 1
@<TRIPOS>MOLECULE
CHEMBL605518__1
   59    63     0     0     0
SMALL
USER_CHARGES

@<TRIPOS>ATOM
      1 C1          0.0054    1.4815   -0.1019 C.3       1 <0>         0.0629
      2 N1          0.0307    0.0171   -0.0690 N.am      1 <0>        -0.5552
      3 C2         -1.0654   -0.7687   -0.0174 C.2       1 <0>         0.5413
      4 O1         -2.2251   -0.4158    0.0096 O.2       1 <0>        -0.3897
      5 C3         -0.5331   -2.1881   -0.0009 C.3       1 <0>         0.1706
      6 N2          0.9279   -2.0183   -0.0495 N.pl3     1 <0>        -0.6201
      7 C4          1.1723   -0.7450   -0.0922 C.cat     1 <0>         0.7289
      8 N3          2.4393   -0.2154   -0.1506 N.pl3     1 <0>        -0.7801
      9 C5         -1.0174   -2.9485   -1.2085 C.ar      1 <0>        -0.0994
     10 C6         -0.1116   -3.3903   -2.1557 C.ar      1 <0>        -0.1222
     11 C7         -0.5519   -4.0887   -3.2648 C.ar      1 <0>        -0.0861
     12 C8         -1.8986   -4.3475   -3.4301 C.ar      1 <0>        -0.0963
     13 C9         -2.8107   -3.9053   -2.4809 C.ar      1 <0>         0.1673
     14 C10        -2.3645   -3.2085   -1.3651 C.ar      1 <0>        -0.1146
     15 N4         -4.1749   -4.1653   -2.6455 N.am      1 <0>        -0.6724
     16 C11        -4.5775   -5.3217   -3.2087 C.2       1 <0>         0.5732
     17 O2         -3.7554   -6.1016   -3.6498 O.2       1 <0>        -0.5064
     18 C12        -6.0159   -5.6415   -3.2898 C.ar      1 <0>        -0.1399
     19 C13        -6.9622   -4.7440   -2.7887 C.ar      1 <0>        -0.0696
     20 C14        -8.3045   -5.0442   -2.8654 C.ar      1 <0>        -0.1084
     21 C15        -8.7222   -6.2374   -3.4399 C.ar      1 <0>         0.0733
     22 C16        -7.7821   -7.1379   -3.9426 C.ar      1 <0>         0.0276
     23 C17        -6.4351   -6.8399   -3.8733 C.ar      1 <0>        -0.0362
     24 O3         -8.4431   -8.2206   -4.4477 O.3       1 <0>        -0.3013
     25 C18        -9.7659   -8.1605   -3.8824 C.3       1 <0>         0.2114
     26 O4         -9.9681   -6.7574   -3.6317 O.3       1 <0>        -0.3007
     27 C19        -0.9481   -2.9022    1.2870 C.3       1 <0>        -0.0812
     28 C20        -0.4912   -2.0819    2.4949 C.3       1 <0>        -0.1242
     29 C21        -0.9062   -2.7960    3.7828 C.3       1 <0>        -0.1181
     30 C22        -0.2558   -4.1801    3.8308 C.3       1 <0>        -0.1244
     31 C23        -0.7127   -5.0004    2.6228 C.3       1 <0>        -0.1210
     32 C24        -0.2977   -4.2863    1.3349 C.3       1 <0>        -0.1131
     33 H1          1.0260    1.8616   -0.1468 H         1 <0>         0.0996
     34 H2         -0.5457    1.8157   -0.9809 H         1 <0>         0.1080
     35 H3         -0.4828    1.8568    0.7974 H         1 <0>         0.1084
     36 H4          2.5621    0.7464   -0.1774 H         1 <0>         0.4433
     37 H5          3.2106   -0.8034   -0.1649 H         1 <0>         0.4462
     38 H6          0.9418   -3.1889   -2.0290 H         1 <0>         0.1194
     39 H7          0.1580   -4.4320   -4.0028 H         1 <0>         0.1399
     40 H8         -2.2419   -4.8928   -4.2969 H         1 <0>         0.1523
     41 H9         -3.0709   -2.8668   -0.6230 H         1 <0>         0.1393
     42 H10        -4.8315   -3.5133   -2.3544 H         1 <0>         0.4159
     43 H11        -6.6413   -3.8152   -2.3407 H         1 <0>         0.1409
     44 H12        -9.0344   -4.3493   -2.4771 H         1 <0>         0.1481
     45 H13        -5.7068   -7.5343   -4.2655 H         1 <0>         0.1522
     46 H14       -10.5034   -8.5327   -4.5934 H         1 <0>         0.1407
     47 H15        -9.8105   -8.7261   -2.9516 H         1 <0>         0.0929
     48 H16        -2.0325   -3.0094    1.3097 H         1 <0>         0.1182
     49 H17         0.5933   -1.9747    2.4722 H         1 <0>         0.0631
     50 H18        -0.9545   -1.0959    2.4607 H         1 <0>         0.0629
     51 H19        -0.5807   -2.2116    4.6434 H         1 <0>         0.0727
     52 H20        -1.9906   -2.9032    3.8056 H         1 <0>         0.0719
     53 H21         0.8287   -4.0729    3.8080 H         1 <0>         0.0628
     54 H22        -0.5515   -4.6889    4.7483 H         1 <0>         0.0728
     55 H23        -0.2494   -5.9865    2.6570 H         1 <0>         0.0748
     56 H24        -1.7972   -5.1076    2.6456 H         1 <0>         0.0707
     57 H25        -0.6232   -4.8707    0.4743 H         1 <0>         0.0813
     58 H26         0.7868   -4.1791    1.3122 H         1 <0>         0.0614
     59 H27         1.5878   -2.7292   -0.0532 H         1 <0>         0.4647
@<TRIPOS>BOND
     1    1    2 1
     2    1   33 1
     3    1   34 1
     4    1   35 1
     5    2    7 1
     6    2    3 am
     7    3    4 2
     8    3    5 1
     9    5    6 1
    10    5    9 1
    11    5   27 1
    12    6    7 2
    13    6   59 1
    14    7    8 1
    15    8   36 1
    16    8   37 1
    17    9   14 ar
    18    9   10 ar
    19   10   11 ar
    20   10   38 1
    21   11   12 ar
    22   11   39 1
    23   12   13 ar
    24   12   40 1
    25   13   14 ar
    26   13   15 1
    27   14   41 1
    28   15   16 am
    29   15   42 1
    30   16   17 2
    31   16   18 1
    32   18   23 ar
    33   18   19 ar
    34   19   20 ar
    35   19   43 1
    36   20   21 ar
    37   20   44 1
    38   21   26 1
    39   21   22 ar
    40   22   23 ar
    41   22   24 1
    42   23   45 1
    43   24   25 1
    44   25   26 1
    45   25   46 1
    46   25   47 1
    47   27   32 1
    48   27   28 1
    49   27   48 1
    50   28   29 1
    51   28   49 1
    52   28   50 1
    53   29   30 1
    54   29   51 1
    55   29   52 1
    56   30   31 1
    57   30   53 1
    58   30   54 1
    59   31   32 1
    60   31   55 1
    61   31   56 1
    62   32   57 1
    63   32   58 1
@<TRIPOS>MOLECULE
CHEMBL605518__2
   59    63     0     0     0
SMALL
USER_CHARGES

@<TRIPOS>ATOM
      1 C1          0.5689    1.0377   -0.3807 C.3       1 <0>         0.0607
      2 N1          0.4081   -0.4143   -0.2705 N.am      1 <0>        -0.5560
      3 C2         -0.7798   -1.0451   -0.2101 C.2       1 <0>         0.5381
      4 O1         -1.8770   -0.5295   -0.2363 O.2       1 <0>        -0.3907
      5 C3         -0.4770   -2.5244   -0.1036 C.3       1 <0>         0.1820
      6 N2          0.9930   -2.5988   -0.1148 N.pl3     1 <0>        -0.6587
      7 C4          1.4497   -1.3084   -0.2214 C.cat     1 <0>         0.7250
      8 N3          2.7074   -0.9750   -0.2668 N.pl3     1 <0>        -0.7372
      9 C5         -1.0226   -3.0820    1.1858 C.ar      1 <0>        -0.0980
     10 C6         -2.3013   -3.6075    1.2248 C.ar      1 <0>        -0.0962
     11 C7         -2.8055   -4.1205    2.4056 C.ar      1 <0>        -0.0842
     12 C8         -2.0329   -4.1097    3.5506 C.ar      1 <0>        -0.0947
     13 C9         -0.7486   -3.5828    3.5148 C.ar      1 <0>         0.1618
     14 C10        -0.2431   -3.0729    2.3256 C.ar      1 <0>        -0.1346
     15 N4          0.0361   -3.5698    4.6724 N.am      1 <0>        -0.6739
     16 C11        -0.0784   -4.5639    5.5753 C.2       1 <0>         0.5708
     17 O2         -0.7918   -5.5200    5.3396 O.2       1 <0>        -0.5021
     18 C12         0.6619   -4.4920    6.8499 C.ar      1 <0>        -0.1395
     19 C13         1.4775   -3.3914    7.1249 C.ar      1 <0>        -0.0716
     20 C14         2.1678   -3.3259    8.3153 C.ar      1 <0>        -0.1092
     21 C15         2.0564   -4.3512    9.2451 C.ar      1 <0>         0.0731
     22 C16         1.2432   -5.4530    8.9767 C.ar      1 <0>         0.0294
     23 C17         0.5445   -5.5216    7.7872 C.ar      1 <0>        -0.0364
     24 O3          1.3064   -6.3096   10.0381 O.3       1 <0>        -0.3005
     25 C18         2.4792   -5.9194   10.7766 C.3       1 <0>         0.2113
     26 O4          2.6257   -4.5199   10.4727 O.3       1 <0>        -0.3006
     27 C19        -1.0595   -3.2769   -1.3017 C.3       1 <0>        -0.0850
     28 C20        -0.7258   -4.7651   -1.1805 C.3       1 <0>        -0.1146
     29 C21        -1.3083   -5.5176   -2.3786 C.3       1 <0>        -0.1216
     30 C22        -0.7054   -4.9634   -3.6710 C.3       1 <0>        -0.1239
     31 C23        -1.0391   -3.4751   -3.7922 C.3       1 <0>        -0.1189
     32 C24        -0.4566   -2.7227   -2.5941 C.3       1 <0>        -0.1207
     33 H1          1.6301    1.2841   -0.4160 H         1 <0>         0.0978
     34 H2          0.0839    1.3889   -1.2915 H         1 <0>         0.1095
     35 H3          0.1123    1.5204    0.4833 H         1 <0>         0.1092
     36 H4          2.9593   -0.0412   -0.3398 H         1 <0>         0.4475
     37 H5         -2.9075   -3.6169    0.3310 H         1 <0>         0.1376
     38 H6         -3.8045   -4.5298    2.4328 H         1 <0>         0.1430
     39 H7         -2.4274   -4.5102    4.4727 H         1 <0>         0.1465
     40 H8          0.7568   -2.6662    2.2935 H         1 <0>         0.1200
     41 H9          0.6628   -2.8454    4.8255 H         1 <0>         0.4115
     42 H10         1.5671   -2.5922    6.4040 H         1 <0>         0.1383
     43 H11         2.7980   -2.4745    8.5258 H         1 <0>         0.1472
     44 H12        -0.0882   -6.3720    7.5799 H         1 <0>         0.1529
     45 H13         2.3245   -6.0650   11.8457 H         1 <0>         0.1413
     46 H14         3.3503   -6.4787   10.4351 H         1 <0>         0.0932
     47 H15        -2.1416   -3.1475   -1.3209 H         1 <0>         0.1167
     48 H16         0.3563   -4.8945   -1.1614 H         1 <0>         0.0620
     49 H17        -1.1553   -5.1599   -0.2598 H         1 <0>         0.0824
     50 H18        -1.0706   -6.5778   -2.2923 H         1 <0>         0.0741
     51 H19        -2.3904   -5.3882   -2.3978 H         1 <0>         0.0708
     52 H20         0.3767   -5.0927   -3.6519 H         1 <0>         0.0622
     53 H21        -1.1204   -5.4994   -4.5246 H         1 <0>         0.0718
     54 H22        -0.6096   -3.0803   -4.7130 H         1 <0>         0.0713
     55 H23        -2.1212   -3.3457   -3.8114 H         1 <0>         0.0716
     56 H24        -0.6943   -1.6624   -2.6805 H         1 <0>         0.0599
     57 H25         0.6255   -2.8520   -2.5750 H         1 <0>         0.0635
     58 H26         1.5333   -3.4026   -0.0613 H         1 <0>         0.4629
     59 H27         3.3925   -1.6606   -0.2276 H         1 <0>         0.4514
@<TRIPOS>BOND
     1    1    2 1
     2    1   33 1
     3    1   34 1
     4    1   35 1
     5    2    7 1
     6    2    3 am
     7    3    4 2
     8    3    5 1
     9    5    6 1
    10    5    9 1
    11    5   27 1
    12    6    7 1
    13    6   58 1
    14    7    8 2
    15    8   36 1
    16    8   59 1
    17    9   14 ar
    18    9   10 ar
    19   10   11 ar
    20   10   37 1
    21   11   12 ar
    22   11   38 1
    23   12   13 ar
    24   12   39 1
    25   13   14 ar
    26   13   15 1
    27   14   40 1
    28   15   16 am
    29   15   41 1
    30   16   17 2
    31   16   18 1
    32   18   23 ar
    33   18   19 ar
    34   19   20 ar
    35   19   42 1
    36   20   21 ar
    37   20   43 1
    38   21   26 1
    39   21   22 ar
    40   22   23 ar
    41   22   24 1
    42   23   44 1
    43   24   25 1
    44   25   26 1
    45   25   45 1
    46   25   46 1
    47   27   32 1
    48   27   28 1
    49   27   47 1
    50   28   29 1
    51   28   48 1
    52   28   49 1
    53   29   30 1
    54   29   50 1
    55   29   51 1
    56   30   31 1
    57   30   52 1
    58   30   53 1
    59   31   32 1
    60   31   54 1
    61   31   55 1
    62   32   56 1
    63   32   57 1
@<TRIPOS>MOLECULE
CHEMBL605518__3
   59    63     0     0     0
SMALL
USER_CHARGES

@<TRIPOS>ATOM
      1 C1          0.5776    1.0480   -0.3800 C.3       1 <0>         0.0627
      2 N1          0.4170   -0.4040   -0.2695 N.am      1 <0>        -0.5559
      3 C2         -0.7705   -1.0429   -0.2111 C.2       1 <0>         0.5392
      4 O1         -1.8767   -0.5471   -0.2390 O.2       1 <0>        -0.3848
      5 C3         -0.4222   -2.5144   -0.1037 C.3       1 <0>         0.1708
      6 N2          1.0493   -2.5312   -0.1153 N.pl3     1 <0>        -0.6194
      7 C4          1.4535   -1.3027   -0.2171 C.cat     1 <0>         0.7255
      8 N3          2.7782   -0.9393   -0.2634 N.pl3     1 <0>        -0.7815
      9 C5         -0.9473   -3.0892    1.1866 C.ar      1 <0>        -0.0996
     10 C6         -2.2090   -3.6543    1.2281 C.ar      1 <0>        -0.0945
     11 C7         -2.6944   -4.1832    2.4097 C.ar      1 <0>        -0.0830
     12 C8         -1.9202   -4.1488    3.5531 C.ar      1 <0>        -0.0932
     13 C9         -0.6529   -3.5821    3.5148 C.ar      1 <0>         0.1642
     14 C10        -0.1661   -3.0563    2.3248 C.ar      1 <0>        -0.1367
     15 N4          0.1334   -3.5453    4.6707 N.am      1 <0>        -0.6741
     16 C11         0.0518   -4.5428    5.5734 C.2       1 <0>         0.5712
     17 O2         -0.6319   -5.5205    5.3388 O.2       1 <0>        -0.5019
     18 C12         0.7923   -4.4484    6.8464 C.ar      1 <0>        -0.1400
     19 C13         1.5739   -3.3231    7.1202 C.ar      1 <0>        -0.0714
     20 C14         2.2643   -3.2366    8.3092 C.ar      1 <0>        -0.1091
     21 C15         2.1868   -4.2652    9.2388 C.ar      1 <0>         0.0735
     22 C16         1.4078   -5.3917    8.9716 C.ar      1 <0>         0.0294
     23 C17         0.7090   -5.4815    7.7835 C.ar      1 <0>        -0.0363
     24 O3          1.4998   -6.2463   10.0324 O.3       1 <0>        -0.3004
     25 C18         2.6615   -5.8202   10.7686 C.3       1 <0>         0.2113
     26 O4          2.7638   -4.4166   10.4651 O.3       1 <0>        -0.3005
     27 C19        -0.9773   -3.2864   -1.3022 C.3       1 <0>        -0.0850
     28 C20        -0.5973   -4.7633   -1.1780 C.3       1 <0>        -0.1159
     29 C21        -1.1525   -5.5353   -2.3766 C.3       1 <0>        -0.1214
     30 C22        -0.5639   -4.9642   -3.6682 C.3       1 <0>        -0.1245
     31 C23        -0.9439   -3.4873   -3.7924 C.3       1 <0>        -0.1184
     32 C24        -0.3887   -2.7153   -2.5938 C.3       1 <0>        -0.1228
     33 H1          1.6388    1.2947   -0.4128 H         1 <0>         0.0992
     34 H2          0.0947    1.3986   -1.2921 H         1 <0>         0.1083
     35 H3          0.1188    1.5310    0.4827 H         1 <0>         0.1080
     36 H4          3.0221   -0.0033   -0.3368 H         1 <0>         0.4430
     37 H5          3.4692   -1.6188   -0.2228 H         1 <0>         0.4458
     38 H6         -2.8166   -3.6821    0.3356 H         1 <0>         0.1386
     39 H7         -3.6802   -4.6234    2.4389 H         1 <0>         0.1442
     40 H8         -2.3000   -4.5618    4.4759 H         1 <0>         0.1476
     41 H9          0.8206   -2.6186    2.2907 H         1 <0>         0.1196
     42 H10         0.7376   -2.8018    4.8228 H         1 <0>         0.4120
     43 H11         1.6370   -2.5211    6.3996 H         1 <0>         0.1384
     44 H12         2.8681   -2.3661    8.5188 H         1 <0>         0.1474
     45 H13         0.1026   -6.3511    7.5772 H         1 <0>         0.1529
     46 H14         2.5136   -5.9709   11.8380 H         1 <0>         0.1414
     47 H15         3.5488   -6.3519   10.4251 H         1 <0>         0.0934
     48 H16        -2.0629   -3.1912   -1.3245 H         1 <0>         0.1206
     49 H17         0.4883   -4.8585   -1.1557 H         1 <0>         0.0618
     50 H18        -1.0167   -5.1702   -0.2578 H         1 <0>         0.0838
     51 H19        -0.8818   -6.5874   -2.2881 H         1 <0>         0.0750
     52 H20        -2.2381   -5.4401   -2.3989 H         1 <0>         0.0716
     53 H21         0.5217   -5.0594   -3.6459 H         1 <0>         0.0624
     54 H22        -0.9594   -5.5142   -4.5221 H         1 <0>         0.0728
     55 H23        -0.5245   -3.0804   -4.7126 H         1 <0>         0.0725
     56 H24        -2.0295   -3.3921   -3.8147 H         1 <0>         0.0724
     57 H25        -0.6594   -1.6631   -2.6823 H         1 <0>         0.0620
     58 H26         0.6969   -2.8105   -2.5716 H         1 <0>         0.0631
     59 H27         1.6141   -3.3179   -0.0611 H         1 <0>         0.4645
@<TRIPOS>BOND
     1    1    2 1
     2    1   33 1
     3    1   34 1
     4    1   35 1
     5    2    7 1
     6    2    3 am
     7    3    4 2
     8    3    5 1
     9    5    6 1
    10    5    9 1
    11    5   27 1
    12    6    7 2
    13    6   59 1
    14    7    8 1
    15    8   36 1
    16    8   37 1
    17    9   14 ar
    18    9   10 ar
    19   10   11 ar
    20   10   38 1
    21   11   12 ar
    22   11   39 1
    23   12   13 ar
    24   12   40 1
    25   13   14 ar
    26   13   15 1
    27   14   41 1
    28   15   16 am
    29   15   42 1
    30   16   17 2
    31   16   18 1
    32   18   23 ar
    33   18   19 ar
    34   19   20 ar
    35   19   43 1
    36   20   21 ar
    37   20   44 1
    38   21   26 1
    39   21   22 ar
    40   22   23 ar
    41   22   24 1
    42   23   45 1
    43   24   25 1
    44   25   26 1
    45   25   46 1
    46   25   47 1
    47   27   32 1
    48   27   28 1
    49   27   48 1
    50   28   29 1
    51   28   49 1
    52   28   50 1
    53   29   30 1
    54   29   51 1
    55   29   52 1
    56   30   31 1
    57   30   53 1
    58   30   54 1
    59   31   32 1
    60   31   55 1
    61   31   56 1
    62   32   57 1
    63   32   58 1
@<TRIPOS>MOLECULE
CHEMBL573162
   47    51     0     0     0
SMALL
USER_CHARGES

@<TRIPOS>ATOM
      1 C1         -0.0167    1.3782    0.0096 C.ar      1 <0>        -0.1139
      2 C2          1.1712    2.0850    0.0021 C.ar      1 <0>        -0.1042
      3 C3          2.3785    1.4143   -0.0297 C.ar      1 <0>        -0.1262
      4 C4          2.4084    0.0241   -0.0448 C.ar      1 <0>         0.1238
      5 C5          1.2119   -0.6843   -0.0090 C.ar      1 <0>         0.1476
      6 C6          0.0021   -0.0041    0.0020 C.ar      1 <0>        -0.1108
      7 N1          1.2100   -2.0835    0.0616 N.pl3     1 <0>        -0.7249
      8 C7          1.7988   -2.7093    1.1545 C.ar      1 <0>         0.1938
      9 C8          1.0376   -3.5270    1.9771 C.ar      1 <0>        -0.0931
     10 C9          1.6162   -4.1180    3.0969 C.ar      1 <0>        -0.0660
     11 C10         2.9609   -3.8849    3.3931 C.ar      1 <0>        -0.0797
     12 C11         3.7241   -3.0890    2.5705 C.ar      1 <0>        -0.0607
     13 C12         3.1583   -2.5076    1.4305 C.ar      1 <0>        -0.1352
     14 C13         4.0018   -1.7258    0.5170 C.2       1 <0>         0.5724
     15 O1          5.1343   -2.1261    0.3303 O.2       1 <0>        -0.5312
     16 N2          3.6392   -0.6253   -0.1211 N.am      1 <0>        -0.6507
     17 C14         0.8046   -4.9944    3.9753 C.2       1 <0>         0.5451
     18 O2         -0.3692   -5.1974    3.7170 O.2       1 <0>        -0.5914
     19 N3          1.3594   -5.5610    5.0490 N.2       1 <0>        -0.6646
     20 C15         0.6308   -6.3479    5.8377 C.2       1 <0>         0.6174
     21 N4         -0.6797   -6.6602    5.6624 N.pl3     1 <0>        -0.5914
     22 H1         -1.2497   -6.3497    4.9415 H         1 <0>         0.4496
     23 C16        -1.0581   -7.5040    6.6993 C.2       1 <0>         0.0589
     24 C17         0.0149   -7.6950    7.4876 C.2       1 <0>         0.0157
     25 N5          1.0690   -6.9836    6.9552 N.pl3     1 <0>        -0.5704
     26 C18        -2.4024   -8.0881    6.9009 C.ar      1 <0>        -0.0347
     27 C19        -3.4294   -7.8094    5.9984 C.ar      1 <0>        -0.0795
     28 C20        -4.6809   -8.3565    6.1910 C.ar      1 <0>        -0.1439
     29 C21        -4.9191   -9.1817    7.2784 C.ar      1 <0>         0.1075
     30 C22        -3.9029   -9.4613    8.1778 C.ar      1 <0>        -0.1453
     31 C23        -2.6461   -8.9243    7.9910 C.ar      1 <0>        -0.0705
     32 F1         -6.1467   -9.7151    7.4625 F         1 <0>        -0.1342
     33 H2         -0.9590    1.9056    0.0259 H         1 <0>         0.1310
     34 H3          1.1554    3.1647    0.0207 H         1 <0>         0.1318
     35 H4          3.3033    1.9721   -0.0425 H         1 <0>         0.1320
     36 H5         -0.9264   -0.5557    0.0050 H         1 <0>         0.1324
     37 H6          0.8021   -2.6096   -0.6440 H         1 <0>         0.4127
     38 H7         -0.0028   -3.7051    1.7487 H         1 <0>         0.1419
     39 H8          3.4036   -4.3316    4.2711 H         1 <0>         0.1493
     40 H9          4.7632   -2.9118    2.8059 H         1 <0>         0.1398
     41 H10         4.3025   -0.2267   -0.7061 H         1 <0>         0.4098
     42 H11         1.9680   -6.9426    7.3172 H         1 <0>         0.4488
     43 H12         0.0463   -8.3028    8.3797 H         1 <0>         0.2017
     44 H13        -3.2448   -7.1661    5.1507 H         1 <0>         0.1318
     45 H14        -5.4766   -8.1411    5.4932 H         1 <0>         0.1425
     46 H15        -4.0939  -10.1045    9.0241 H         1 <0>         0.1443
     47 H16        -1.8533   -9.1470    8.6898 H         1 <0>         0.1410
@<TRIPOS>BOND
     1    1    6 ar
     2    1    2 ar
     3    1   33 1
     4    2    3 ar
     5    2   34 1
     6    3    4 ar
     7    3   35 1
     8    4   16 1
     9    4    5 ar
    10    5    6 ar
    11    5    7 1
    12    6   36 1
    13    7    8 1
    14    7   37 1
    15    8   13 ar
    16    8    9 ar
    17    9   10 ar
    18    9   38 1
    19   10   11 ar
    20   10   17 1
    21   11   12 ar
    22   11   39 1
    23   12   13 ar
    24   12   40 1
    25   13   14 1
    26   14   15 2
    27   14   16 am
    28   16   41 1
    29   17   18 2
    30   17   19 1
    31   19   20 2
    32   20   25 1
    33   20   21 1
    34   21   23 1
    35   21   22 1
    36   23   26 1
    37   23   24 2
    38   24   43 1
    39   24   25 1
    40   25   42 1
    41   26   31 ar
    42   26   27 ar
    43   27   28 ar
    44   27   44 1
    45   28   29 ar
    46   28   45 1
    47   29   30 ar
    48   29   32 1
    49   30   31 ar
    50   30   46 1
    51   31   47 1
@<TRIPOS>MOLECULE
CHEMBL573162__1
   47    51     0     0     0
SMALL
USER_CHARGES

@<TRIPOS>ATOM
      1 C1         -0.0167    1.3782    0.0096 C.ar      1 <0>        -0.1139
      2 C2          1.1712    2.0850    0.0021 C.ar      1 <0>        -0.1042
      3 C3          2.3785    1.4143   -0.0297 C.ar      1 <0>        -0.1262
      4 C4          2.4084    0.0241   -0.0448 C.ar      1 <0>         0.1238
      5 C5          1.2119   -0.6843   -0.0090 C.ar      1 <0>         0.1475
      6 C6          0.0021   -0.0041    0.0020 C.ar      1 <0>        -0.1107
      7 N1          1.2100   -2.0835    0.0616 N.pl3     1 <0>        -0.7249
      8 C7          1.7988   -2.7093    1.1545 C.ar      1 <0>         0.1937
      9 C8          1.0376   -3.5270    1.9771 C.ar      1 <0>        -0.0929
     10 C9          1.6162   -4.1180    3.0969 C.ar      1 <0>        -0.0662
     11 C10         2.9609   -3.8849    3.3931 C.ar      1 <0>        -0.0796
     12 C11         3.7241   -3.0890    2.5705 C.ar      1 <0>        -0.0608
     13 C12         3.1583   -2.5076    1.4305 C.ar      1 <0>        -0.1351
     14 C13         4.0018   -1.7258    0.5170 C.2       1 <0>         0.5724
     15 O1          5.1343   -2.1261    0.3303 O.2       1 <0>        -0.5312
     16 N2          3.6392   -0.6253   -0.1211 N.am      1 <0>        -0.6508
     17 C14         0.8046   -4.9944    3.9753 C.2       1 <0>         0.5457
     18 O2         -0.3692   -5.1974    3.7170 O.2       1 <0>        -0.5907
     19 N3          1.3594   -5.5610    5.0490 N.2       1 <0>        -0.6652
     20 C15         0.6308   -6.3479    5.8377 C.2       1 <0>         0.6192
     21 N4          1.0676   -6.9790    6.9587 N.pl3     1 <0>        -0.5729
     22 H1          1.9645   -6.9364    7.3257 H         1 <0>         0.4447
     23 C16         0.0007   -7.6959    7.4861 C.2       1 <0>         0.0588
     24 C17        -1.0642   -7.4961    6.6890 C.2       1 <0>         0.0185
     25 N5         -0.6810   -6.6554    5.6657 N.pl3     1 <0>        -0.5903
     26 C18         0.0308   -8.5310    8.7070 C.ar      1 <0>        -0.0301
     27 C19         1.2081   -8.6474    9.4468 C.ar      1 <0>        -0.0823
     28 C20         1.2307   -9.4273   10.5843 C.ar      1 <0>        -0.1434
     29 C21         0.0870  -10.0945   10.9927 C.ar      1 <0>         0.1065
     30 C22        -1.0846   -9.9826   10.2614 C.ar      1 <0>        -0.1435
     31 C23        -1.1196   -9.2003    9.1259 C.ar      1 <0>        -0.0714
     32 F1          0.1145  -10.8571   12.1076 F         1 <0>        -0.1341
     33 H2         -0.9590    1.9056    0.0259 H         1 <0>         0.1310
     34 H3          1.1554    3.1647    0.0207 H         1 <0>         0.1318
     35 H4          3.3033    1.9721   -0.0425 H         1 <0>         0.1320
     36 H5         -0.9264   -0.5557    0.0050 H         1 <0>         0.1325
     37 H6          0.8021   -2.6096   -0.6440 H         1 <0>         0.4127
     38 H7         -0.0028   -3.7051    1.7487 H         1 <0>         0.1421
     39 H8          3.4036   -4.3316    4.2711 H         1 <0>         0.1492
     40 H9          4.7632   -2.9118    2.8059 H         1 <0>         0.1397
     41 H10         4.3025   -0.2267   -0.7061 H         1 <0>         0.4098
     42 H11        -1.2496   -6.3396    4.9461 H         1 <0>         0.4528
     43 H12        -2.0487   -7.9176    6.8285 H         1 <0>         0.1962
     44 H13         2.1001   -8.1281    9.1291 H         1 <0>         0.1321
     45 H14         2.1416   -9.5183   11.1575 H         1 <0>         0.1427
     46 H15        -1.9731  -10.5053   10.5836 H         1 <0>         0.1442
     47 H16        -2.0347   -9.1096    8.5595 H         1 <0>         0.1407
@<TRIPOS>BOND
     1    1    6 ar
     2    1    2 ar
     3    1   33 1
     4    2    3 ar
     5    2   34 1
     6    3    4 ar
     7    3   35 1
     8    4   16 1
     9    4    5 ar
    10    5    6 ar
    11    5    7 1
    12    6   36 1
    13    7    8 1
    14    7   37 1
    15    8   13 ar
    16    8    9 ar
    17    9   10 ar
    18    9   38 1
    19   10   11 ar
    20   10   17 1
    21   11   12 ar
    22   11   39 1
    23   12   13 ar
    24   12   40 1
    25   13   14 1
    26   14   15 2
    27   14   16 am
    28   16   41 1
    29   17   18 2
    30   17   19 1
    31   19   20 2
    32   20   25 1
    33   20   21 1
    34   21   23 1
    35   21   22 1
    36   23   26 1
    37   23   24 2
    38   24   43 1
    39   24   25 1
    40   25   42 1
    41   26   31 ar
    42   26   27 ar
    43   27   28 ar
    44   27   44 1
    45   28   29 ar
    46   28   45 1
    47   29   30 ar
    48   29   32 1
    49   30   31 ar
    50   30   46 1
    51   31   47 1
@<TRIPOS>MOLECULE
CHEMBL399748
   84    88     0     0     0
SMALL
USER_CHARGES

@<TRIPOS>ATOM
      1 C1         -0.3990    0.9756    0.2430 C.3       1 <0>        -0.1604
      2 C2         -0.2042   -0.5373    0.1242 C.3       1 <0>         0.1842
      3 H1         -1.1771   -1.0281    0.0985 H         1 <0>         0.1010
      4 C3          0.5796   -1.0375    1.3102 C.ar      1 <0>        -0.0929
      5 C4          1.9539   -0.8924    1.3415 C.ar      1 <0>        -0.1197
      6 C5          2.6728   -1.3511    2.4294 C.ar      1 <0>        -0.1163
      7 C6          2.0173   -1.9547    3.4863 C.ar      1 <0>        -0.1166
      8 C7          0.6429   -2.0990    3.4554 C.ar      1 <0>        -0.1107
      9 C8         -0.0765   -1.6363    2.3694 C.ar      1 <0>        -0.1048
     10 N1          0.5282   -0.8402   -1.1079 N.am      1 <0>        -0.7207
     11 C9         -0.1366   -0.9645   -2.2737 C.2       1 <0>         0.5615
     12 O1         -1.3437   -0.8253   -2.3028 O.2       1 <0>        -0.5206
     13 C10         0.6027   -1.2701   -3.5175 C.ar      1 <0>        -0.1371
     14 C11        -0.0845   -1.3931   -4.7249 C.ar      1 <0>         0.0363
     15 C12         0.6118   -1.6805   -5.8966 C.ar      1 <0>        -0.0510
     16 C13         1.9948   -1.8458   -5.8629 C.ar      1 <0>        -0.0181
     17 C14         2.6825   -1.7235   -4.6561 C.ar      1 <0>        -0.1589
     18 C15         1.9868   -1.4297   -3.4842 C.ar      1 <0>        -0.0475
     19 C16         4.1504   -1.8994   -4.6204 C.2       1 <0>         0.5685
     20 O2          4.7575   -2.1506   -5.6430 O.2       1 <0>        -0.5316
     21 N2          4.8151   -1.7812   -3.4539 N.am      1 <0>        -0.7216
     22 C17         6.2692   -1.9554   -3.4185 C.3       1 <0>         0.1236
     23 H2          6.7044   -1.5651   -4.3384 H         1 <0>         0.1151
     24 C18         6.8447   -1.1975   -2.2204 C.3       1 <0>        -0.0901
     25 C19         6.6248    0.2814   -2.4088 C.ar      1 <0>        -0.0955
     26 C20         7.5758    1.0440   -3.0607 C.ar      1 <0>        -0.1119
     27 C21         7.3742    2.4006   -3.2335 C.ar      1 <0>        -0.1124
     28 C22         6.2213    2.9945   -2.7550 C.ar      1 <0>        -0.1114
     29 C23         5.2698    2.2317   -2.1039 C.ar      1 <0>        -0.1128
     30 C24         5.4695    0.8743   -1.9348 C.ar      1 <0>        -0.1133
     31 C25         6.6016   -3.4432   -3.2882 C.3       1 <0>         0.0712
     32 H3          6.1664   -3.8336   -2.3683 H         1 <0>         0.0835
     33 C26         6.0262   -4.2011   -4.4863 C.3       1 <0>         0.0053
     34 N3          6.2405   -5.6427   -4.3026 N.4       1 <0>        -0.4774
     35 C27         5.6880   -6.3704   -5.4529 C.3       1 <0>        -0.0826
     36 C28         4.5249   -7.3290   -5.1900 C.3       1 <0>        -0.1548
     37 C29         5.9154   -7.8824   -5.5079 C.3       1 <0>        -0.1530
     38 O3          8.0200   -3.6132   -3.2537 O.3       1 <0>        -0.5621
     39 C30        -0.1186   -1.8110   -7.1791 C.ar      1 <0>        -0.0047
     40 C31        -0.0412   -2.9913   -7.9122 C.ar      1 <0>        -0.1156
     41 C32        -0.7228   -3.1090   -9.1069 C.ar      1 <0>        -0.0842
     42 C33        -1.4878   -2.0576   -9.5865 C.ar      1 <0>        -0.1220
     43 C34        -1.5790   -0.8798   -8.8766 C.ar      1 <0>        -0.0668
     44 C35        -0.9008   -0.7430   -7.6615 C.ar      1 <0>        -0.1573
     45 C36        -0.9978    0.5072   -6.8967 C.2       1 <0>         0.3898
     46 O4         -0.3196    0.6649   -5.9036 O.2       1 <0>        -0.4448
     47 C37        -1.9400    1.5942   -7.3460 C.3       1 <0>        -0.2025
     48 H4          0.5739    1.4663    0.2686 H         1 <0>         0.0594
     49 H5         -0.9659    1.3373   -0.6149 H         1 <0>         0.0680
     50 H6         -0.9439    1.2009    1.1597 H         1 <0>         0.0722
     51 H7          2.4660   -0.4209    0.5158 H         1 <0>         0.1149
     52 H8          3.7467   -1.2384    2.4535 H         1 <0>         0.1227
     53 H9          2.5791   -2.3137    4.3359 H         1 <0>         0.1247
     54 H10         0.1308   -2.5708    4.2810 H         1 <0>         0.1274
     55 H11        -1.1507   -1.7457    2.3470 H         1 <0>         0.1271
     56 H12         1.4915   -0.9512   -1.0847 H         1 <0>         0.3933
     57 H13        -1.1566   -1.2657   -4.7514 H         1 <0>         0.1386
     58 H14         2.5342   -2.0690   -6.7715 H         1 <0>         0.1419
     59 H15         2.5198   -1.3302   -2.5502 H         1 <0>         0.1216
     60 H16         4.3306   -1.5808   -2.6378 H         1 <0>         0.4050
     61 H17         6.3453   -1.5259   -1.3088 H         1 <0>         0.0862
     62 H18         7.9130   -1.3990   -2.1421 H         1 <0>         0.0954
     63 H19         8.4765    0.5800   -3.4346 H         1 <0>         0.1223
     64 H20         8.1175    2.9965   -3.7422 H         1 <0>         0.1260
     65 H21         6.0640    4.0545   -2.8894 H         1 <0>         0.1257
     66 H22         4.3693    2.6958   -1.7297 H         1 <0>         0.1247
     67 H23         4.7245    0.2777   -1.4295 H         1 <0>         0.1135
     68 H24         4.9578   -3.9997   -4.5646 H         1 <0>         0.1424
     69 H25         6.5255   -3.8728   -5.3979 H         1 <0>         0.1481
     70 H26         7.2294   -5.8292   -4.2302 H         1 <0>         0.4339
     71 H27         5.6888   -5.8267   -6.3976 H         1 <0>         0.1780
     72 H28         4.1696   -7.4198   -4.1636 H         1 <0>         0.1196
     73 H29         3.7601   -7.4160   -5.9618 H         1 <0>         0.1335
     74 H30         6.0655   -8.3334   -6.4888 H         1 <0>         0.1343
     75 H31         6.4750   -8.3372   -4.6905 H         1 <0>         0.1208
     76 H32         8.4528   -3.1587   -2.5180 H         1 <0>         0.4046
     77 H33         0.5528   -3.8158   -7.5464 H         1 <0>         0.1294
     78 H34        -0.6591   -4.0270   -9.6722 H         1 <0>         0.1332
     79 H35        -2.0157   -2.1618  -10.5229 H         1 <0>         0.1353
     80 H36        -2.1767   -0.0645   -9.2567 H         1 <0>         0.1391
     81 H37        -2.9602    1.2104   -7.3538 H         1 <0>         0.0966
     82 H38        -1.8747    2.4384   -6.6596 H         1 <0>         0.0882
     83 H39        -1.6668    1.9199   -8.3497 H         1 <0>         0.0955
     84 H40         5.7782   -5.9466   -3.4588 H         1 <0>         0.4203
@<TRIPOS>BOND
     1    1    2 1
     2    1   48 1
     3    1   49 1
     4    1   50 1
     5    2    3 1
     6    2    4 1
     7    2   10 1
     8    4    9 ar
     9    4    5 ar
    10    5    6 ar
    11    5   51 1
    12    6    7 ar
    13    6   52 1
    14    7    8 ar
    15    7   53 1
    16    8    9 ar
    17    8   54 1
    18    9   55 1
    19   10   11 am
    20   10   56 1
    21   11   12 2
    22   11   13 1
    23   13   18 ar
    24   13   14 ar
    25   14   15 ar
    26   14   57 1
    27   15   16 ar
    28   15   39 1
    29   16   17 ar
    30   16   58 1
    31   17   18 ar
    32   17   19 1
    33   18   59 1
    34   19   20 2
    35   19   21 am
    36   21   22 1
    37   21   60 1
    38   22   23 1
    39   22   24 1
    40   22   31 1
    41   24   25 1
    42   24   61 1
    43   24   62 1
    44   25   30 ar
    45   25   26 ar
    46   26   27 ar
    47   26   63 1
    48   27   28 ar
    49   27   64 1
    50   28   29 ar
    51   28   65 1
    52   29   30 ar
    53   29   66 1
    54   30   67 1
    55   31   32 1
    56   31   33 1
    57   31   38 1
    58   33   34 1
    59   33   68 1
    60   33   69 1
    61   34   35 1
    62   34   70 1
    63   34   84 1
    64   35   37 1
    65   35   36 1
    66   35   71 1
    67   36   37 1
    68   36   72 1
    69   36   73 1
    70   37   74 1
    71   37   75 1
    72   38   76 1
    73   39   44 ar
    74   39   40 ar
    75   40   41 ar
    76   40   77 1
    77   41   42 ar
    78   41   78 1
    79   42   43 ar
    80   42   79 1
    81   43   44 ar
    82   43   80 1
    83   44   45 1
    84   45   46 2
    85   45   47 1
    86   47   81 1
    87   47   82 1
    88   47   83 1
@<TRIPOS>MOLECULE
CHEMBL464918
   80    84     0     0     0
SMALL
USER_CHARGES

@<TRIPOS>ATOM
      1 C1         -0.1024    1.6338   -0.0241 C.3       1 <0>        -0.1591
      2 C2         -0.0401    0.1051   -0.0087 C.3       1 <0>         0.1856
      3 H1          0.4935   -0.2278    0.8815 H         1 <0>         0.0998
      4 C3          0.6825   -0.3806   -1.2387 C.ar      1 <0>        -0.0985
      5 C4          0.0180   -0.4490   -2.4489 C.ar      1 <0>        -0.1166
      6 C5          0.6809   -0.8945   -3.5772 C.ar      1 <0>        -0.1135
      7 C6          2.0084   -1.2712   -3.4953 C.ar      1 <0>        -0.1149
      8 C7          2.6732   -1.2020   -2.2852 C.ar      1 <0>        -0.1132
      9 C8          2.0115   -0.7524   -1.1579 C.ar      1 <0>        -0.1064
     10 N1         -1.4003   -0.4389    0.0053 N.am      1 <0>        -0.7174
     11 C9         -2.0566   -0.5828    1.1737 C.2       1 <0>         0.5655
     12 O1         -1.5199   -0.2611    2.2158 O.2       1 <0>        -0.5336
     13 C10        -3.4295   -1.1319    1.1878 C.ar      1 <0>        -0.1239
     14 C11        -4.1130   -1.2766    2.3934 C.ar      1 <0>        -0.0434
     15 C12        -5.4029   -1.7963    2.3962 C.ar      1 <0>        -0.1330
     16 C13        -6.0169   -2.1735    1.1933 C.ar      1 <0>        -0.0357
     17 C14        -5.3368   -2.0245    0.0016 C.ar      1 <0>         0.1057
     18 C15        -4.0479   -1.5018   -0.0055 C.ar      1 <0>        -0.0759
     19 O2         -5.8954   -2.3659   -1.1882 O.3       1 <0>        -0.3171
     20 C16        -7.2032   -1.8660   -1.4799 C.3       1 <0>         0.0620
     21 C17        -8.2181   -2.9473   -1.0914 C.3       1 <0>        -0.1519
     22 C18        -7.6559   -3.7187    0.1105 C.3       1 <0>        -0.1224
     23 C19        -7.4131   -2.7371    1.2563 C.3       1 <0>        -0.1065
     24 C20        -6.1304   -1.9523    3.6741 C.2       1 <0>         0.5671
     25 O3         -7.2985   -2.2885    3.6713 O.2       1 <0>        -0.4962
     26 N2         -5.4983   -1.7219    4.8419 N.am      1 <0>        -0.7236
     27 C21        -6.2191   -1.8765    6.1079 C.3       1 <0>         0.1287
     28 H2         -7.2557   -1.5663    5.9761 H         1 <0>         0.1109
     29 C22        -6.1769   -3.3427    6.5431 C.3       1 <0>        -0.1033
     30 C23        -6.9339   -4.1840    5.5480 C.ar      1 <0>        -0.0772
     31 C24        -8.2874   -4.4069    5.7194 C.ar      1 <0>        -0.1059
     32 C25        -8.9818   -5.1786    4.8067 C.ar      1 <0>        -0.1105
     33 C26        -8.3229   -5.7270    3.7223 C.ar      1 <0>        -0.1107
     34 C27        -6.9696   -5.5034    3.5504 C.ar      1 <0>        -0.1088
     35 C28        -6.2761   -4.7281    4.4608 C.ar      1 <0>        -0.1072
     36 C29        -5.5590   -1.0071    7.1800 C.3       1 <0>         0.0733
     37 H3         -5.5092    0.0245    6.8314 H         1 <0>         0.1334
     38 C30        -6.3834   -1.0711    8.4673 C.3       1 <0>        -0.0405
     39 N3         -5.8180   -0.1449    9.4574 N.4       1 <0>        -0.4746
     40 C31        -6.6095   -0.2063   10.6934 C.3       1 <0>        -0.0862
     41 C32        -7.3497    1.0622   11.1222 C.3       1 <0>        -0.1540
     42 C33        -6.1106    0.6021   11.8928 C.3       1 <0>        -0.1531
     43 O4         -4.2378   -1.4876    7.4360 O.3       1 <0>        -0.5480
     44 H4          0.9096    2.0385   -0.0345 H         1 <0>         0.0719
     45 H5         -0.6361    1.9667   -0.9143 H         1 <0>         0.0607
     46 H6         -0.6251    1.9851    0.8656 H         1 <0>         0.0650
     47 H7         -1.0191   -0.1547   -2.5129 H         1 <0>         0.1182
     48 H8          0.1616   -0.9486   -4.5226 H         1 <0>         0.1257
     49 H9          2.5261   -1.6200   -4.3766 H         1 <0>         0.1255
     50 H10         3.7102   -1.4966   -2.2212 H         1 <0>         0.1266
     51 H11         2.5319   -0.6948   -0.2133 H         1 <0>         0.1252
     52 H12        -1.8286   -0.6957   -0.8263 H         1 <0>         0.4009
     53 H13        -3.6430   -0.9868    3.3216 H         1 <0>         0.1394
     54 H14        -3.5210   -1.3863   -0.9411 H         1 <0>         0.1388
     55 H15        -7.3893   -0.9607   -0.9021 H         1 <0>         0.0623
     56 H16        -7.2857   -1.6482   -2.5448 H         1 <0>         0.1030
     57 H17        -9.1657   -2.4822   -0.8197 H         1 <0>         0.0761
     58 H18        -8.3686   -3.6289   -1.9285 H         1 <0>         0.0751
     59 H19        -8.3724   -4.4774    0.4251 H         1 <0>         0.0707
     60 H20        -6.7157   -4.1945   -0.1683 H         1 <0>         0.0734
     61 H21        -7.5484   -3.2543    2.2062 H         1 <0>         0.1294
     62 H22        -8.1325   -1.9210    1.1878 H         1 <0>         0.0802
     63 H23        -4.5661   -1.4536    4.8441 H         1 <0>         0.4080
     64 H24        -5.1409   -3.6784    6.5890 H         1 <0>         0.0828
     65 H25        -6.6352   -3.4430    7.5269 H         1 <0>         0.0798
     66 H26        -8.8022   -3.9784    6.5666 H         1 <0>         0.1119
     67 H27       -10.0391   -5.3533    4.9410 H         1 <0>         0.1195
     68 H28        -8.8653   -6.3305    3.0095 H         1 <0>         0.1202
     69 H29        -6.4547   -5.9321    2.7033 H         1 <0>         0.1181
     70 H30        -5.2196   -4.5503    4.3245 H         1 <0>         0.1106
     71 H31        -7.4142   -0.7891    8.2530 H         1 <0>         0.1473
     72 H32        -6.3594   -2.0861    8.8640 H         1 <0>         0.1413
     73 H33        -4.8638   -0.4059    9.6558 H         1 <0>         0.4337
     74 H34        -7.0907   -1.1631   10.8965 H         1 <0>         0.1779
     75 H35        -7.2494    1.9424   10.4871 H         1 <0>         0.1217
     76 H36        -8.3182    0.9402   11.6073 H         1 <0>         0.1343
     77 H37        -6.2639    0.1774   12.8849 H         1 <0>         0.1348
     78 H38        -5.1951    1.1796   11.7647 H         1 <0>         0.1222
     79 H39        -4.2057   -2.4016    7.7502 H         1 <0>         0.3919
     80 H40        -5.8403    0.7947    9.0902 H         1 <0>         0.4268
@<TRIPOS>BOND
     1    1    2 1
     2    1   44 1
     3    1   45 1
     4    1   46 1
     5    2    3 1
     6    2    4 1
     7    2   10 1
     8    4    9 ar
     9    4    5 ar
    10    5    6 ar
    11    5   47 1
    12    6    7 ar
    13    6   48 1
    14    7    8 ar
    15    7   49 1
    16    8    9 ar
    17    8   50 1
    18    9   51 1
    19   10   11 am
    20   10   52 1
    21   11   12 2
    22   11   13 1
    23   13   18 ar
    24   13   14 ar
    25   14   15 ar
    26   14   53 1
    27   15   16 ar
    28   15   24 1
    29   16   23 1
    30   16   17 ar
    31   17   18 ar
    32   17   19 1
    33   18   54 1
    34   19   20 1
    35   20   21 1
    36   20   55 1
    37   20   56 1
    38   21   22 1
    39   21   57 1
    40   21   58 1
    41   22   23 1
    42   22   59 1
    43   22   60 1
    44   23   61 1
    45   23   62 1
    46   24   25 2
    47   24   26 am
    48   26   27 1
    49   26   63 1
    50   27   28 1
    51   27   29 1
    52   27   36 1
    53   29   30 1
    54   29   64 1
    55   29   65 1
    56   30   35 ar
    57   30   31 ar
    58   31   32 ar
    59   31   66 1
    60   32   33 ar
    61   32   67 1
    62   33   34 ar
    63   33   68 1
    64   34   35 ar
    65   34   69 1
    66   35   70 1
    67   36   37 1
    68   36   38 1
    69   36   43 1
    70   38   39 1
    71   38   71 1
    72   38   72 1
    73   39   40 1
    74   39   73 1
    75   39   80 1
    76   40   42 1
    77   40   41 1
    78   40   74 1
    79   41   42 1
    80   41   75 1
    81   41   76 1
    82   42   77 1
    83   42   78 1
    84   43   79 1
@<TRIPOS>MOLECULE
CHEMBL1082548
   71    73     0     0     0
SMALL
USER_CHARGES

@<TRIPOS>ATOM
      1 C1          0.0281    1.4473   -0.1434 C.3       1 <0>        -0.1627
      2 C2          0.0346   -0.0819   -0.0932 C.3       1 <0>         0.1859
      3 H1          0.5455   -0.4721   -0.9734 H         1 <0>         0.1042
      4 C3         -1.3841   -0.5897   -0.0694 C.ar      1 <0>        -0.1063
      5 C4         -2.1004   -0.5828    1.1129 C.ar      1 <0>        -0.0890
      6 C5         -3.4016   -1.0479    1.1358 C.ar      1 <0>        -0.1502
      7 C6         -3.9877   -1.5209   -0.0260 C.ar      1 <0>         0.1036
      8 C7         -3.2692   -1.5274   -1.2096 C.ar      1 <0>        -0.1459
      9 C8         -1.9700   -1.0569   -1.2312 C.ar      1 <0>        -0.0739
     10 F1         -5.2595   -1.9762   -0.0047 F         1 <0>        -0.1356
     11 N1          0.7332   -0.5278    1.1148 N.am      1 <0>        -0.7196
     12 C9          2.0753   -0.6510    1.1104 C.2       1 <0>         0.5589
     13 O1          2.7061   -0.3921    0.1041 O.2       1 <0>        -0.5177
     14 C10         2.7805   -1.1011    2.3296 C.ar      1 <0>        -0.1098
     15 C11         2.0577   -1.4046    3.4849 C.ar      1 <0>        -0.0659
     16 C12         2.7179   -1.8244    4.6215 C.ar      1 <0>        -0.0939
     17 C13         4.0951   -1.9458    4.6217 C.ar      1 <0>        -0.0905
     18 C14         4.8238   -1.6462    3.4768 C.ar      1 <0>         0.1579
     19 C15         4.1691   -1.2294    2.3276 C.ar      1 <0>        -0.0408
     20 N2          6.2154   -1.7700    3.4822 N.pl3     1 <0>        -0.9558
     21 C16         6.8754   -2.6591    2.5229 C.3       1 <0>         0.0844
     22 S1          7.1189   -0.9118    4.5728 S.o2      1 <0>         2.5957
     23 O2          8.3421   -0.6454    3.9005 O.2       1 <0>        -0.9326
     24 O3          6.2730    0.1525    4.9866 O.2       1 <0>        -0.9359
     25 C17         7.3998   -2.0583    5.9502 C.3       1 <0>        -0.6726
     26 C18         1.9352   -2.1512    5.8671 C.3       1 <0>         0.1123
     27 O4          1.5746   -3.5339    5.8540 O.3       1 <0>        -0.3545
     28 C19         0.8686   -3.9895    6.9008 C.2       1 <0>         0.4455
     29 O5          0.5668   -3.2392    7.7985 O.2       1 <0>        -0.4356
     30 C20         0.4524   -5.4369    6.9564 C.3       1 <0>         0.0895
     31 C21        -0.8541   -5.6220    6.1820 C.3       1 <0>        -0.1835
     32 C22         0.2445   -5.8521    8.4142 C.3       1 <0>        -0.0856
     33 C23        -0.0515   -7.3284    8.4787 C.ar      1 <0>        -0.1340
     34 C24        -1.3572   -7.7755    8.4012 C.ar      1 <0>        -0.1010
     35 C25        -1.6287   -9.1297    8.4603 C.ar      1 <0>        -0.1043
     36 C26        -0.5944  -10.0367    8.5965 C.ar      1 <0>        -0.0982
     37 C27         0.7114   -9.5895    8.6731 C.ar      1 <0>        -0.1059
     38 C28         0.9832   -8.2356    8.6097 C.ar      1 <0>        -0.1412
     39 N3          1.5009   -6.2713    6.3543 N.4       1 <0>        -0.6307
     40 H2          1.0542    1.8146   -0.1606 H         1 <0>         0.0696
     41 H3         -0.4917    1.7791   -1.0422 H         1 <0>         0.0741
     42 H4         -0.4829    1.8376    0.7368 H         1 <0>         0.0613
     43 H5         -1.6429   -0.2141    2.0191 H         1 <0>         0.1282
     44 H6         -3.9610   -1.0427    2.0597 H         1 <0>         0.1376
     45 H7         -3.7253   -1.8964   -2.1164 H         1 <0>         0.1414
     46 H8         -1.4109   -1.0577   -2.1552 H         1 <0>         0.1388
     47 H9          0.2299   -0.7344    1.9178 H         1 <0>         0.3970
     48 H10         0.9818   -1.3104    3.4892 H         1 <0>         0.1335
     49 H11         4.6063   -2.2741    5.5146 H         1 <0>         0.1299
     50 H12         4.7331   -1.0004    1.4354 H         1 <0>         0.1519
     51 H13         7.1107   -2.1036    1.6150 H         1 <0>         0.0744
     52 H14         7.7954   -3.0468    2.9603 H         1 <0>         0.0825
     53 H15         6.2111   -3.4883    2.2796 H         1 <0>         0.0798
     54 H16         7.9328   -2.9374    5.5882 H         1 <0>         0.1324
     55 H17         7.9938   -1.5641    6.7189 H         1 <0>         0.1377
     56 H18         6.4414   -2.3623    6.3711 H         1 <0>         0.1236
     57 H19         2.5464   -1.9435    6.7453 H         1 <0>         0.0952
     58 H20         1.0328   -1.5407    5.8998 H         1 <0>         0.0975
     59 H21        -0.7059   -5.3262    5.1434 H         1 <0>         0.0973
     60 H22        -1.1551   -6.6688    6.2222 H         1 <0>         0.1078
     61 H23        -1.6320   -5.0028    6.6287 H         1 <0>         0.1177
     62 H24         1.1475   -5.6373    8.9855 H         1 <0>         0.1070
     63 H25        -0.5927   -5.2950    8.8348 H         1 <0>         0.1335
     64 H26        -2.1653   -7.0669    8.2948 H         1 <0>         0.1333
     65 H27        -2.6489   -9.4790    8.4005 H         1 <0>         0.1353
     66 H28        -0.8066  -11.0946    8.6435 H         1 <0>         0.1345
     67 H29         1.5194  -10.2981    8.7799 H         1 <0>         0.1343
     68 H30         2.0037   -7.8865    8.6657 H         1 <0>         0.1248
     69 H31         2.3625   -6.1492    6.8650 H         1 <0>         0.4375
     70 H32         1.2222   -7.2404    6.3916 H         1 <0>         0.4419
     71 H33         1.6380   -5.9975    5.3929 H         1 <0>         0.4437
@<TRIPOS>BOND
     1    1    2 1
     2    1   40 1
     3    1   41 1
     4    1   42 1
     5    2    3 1
     6    2    4 1
     7    2   11 1
     8    4    9 ar
     9    4    5 ar
    10    5    6 ar
    11    5   43 1
    12    6    7 ar
    13    6   44 1
    14    7    8 ar
    15    7   10 1
    16    8    9 ar
    17    8   45 1
    18    9   46 1
    19   11   12 am
    20   11   47 1
    21   12   13 2
    22   12   14 1
    23   14   19 ar
    24   14   15 ar
    25   15   16 ar
    26   15   48 1
    27   16   17 ar
    28   16   26 1
    29   17   18 ar
    30   17   49 1
    31   18   19 ar
    32   18   20 1
    33   19   50 1
    34   20   21 1
    35   20   22 1
    36   21   51 1
    37   21   52 1
    38   21   53 1
    39   22   23 2
    40   22   24 2
    41   22   25 1
    42   25   54 1
    43   25   55 1
    44   25   56 1
    45   26   27 1
    46   26   57 1
    47   26   58 1
    48   27   28 1
    49   28   29 2
    50   28   30 1
    51   30   31 1
    52   30   32 1
    53   30   39 1
    54   31   59 1
    55   31   60 1
    56   31   61 1
    57   32   33 1
    58   32   62 1
    59   32   63 1
    60   33   38 ar
    61   33   34 ar
    62   34   35 ar
    63   34   64 1
    64   35   36 ar
    65   35   65 1
    66   36   37 ar
    67   36   66 1
    68   37   38 ar
    69   37   67 1
    70   38   68 1
    71   39   69 1
    72   39   70 1
    73   39   71 1
@<TRIPOS>MOLECULE
CHEMBL1082548__1
   70    72     0     0     0
SMALL
USER_CHARGES

@<TRIPOS>ATOM
      1 C1         -0.1732    1.4435    0.0471 C.3       1 <0>        -0.1611
      2 C2         -0.0946   -0.0842    0.0217 C.3       1 <0>         0.1860
      3 H1         -1.1023   -0.4999    0.0207 H         1 <0>         0.1030
      4 C3          0.6476   -0.5694    1.2402 C.ar      1 <0>        -0.1053
      5 C4          2.0291   -0.5276    1.2695 C.ar      1 <0>        -0.0868
      6 C5          2.7108   -0.9718    2.3866 C.ar      1 <0>        -0.1482
      7 C6          2.0097   -1.4588    3.4767 C.ar      1 <0>         0.1022
      8 C7          0.6260   -1.5001    3.4462 C.ar      1 <0>        -0.1475
      9 C8         -0.0537   -1.0505    2.3301 C.ar      1 <0>        -0.0754
     10 F1          2.6751   -1.8937    4.5690 F         1 <0>        -0.1369
     11 N1          0.6133   -0.5168   -1.1857 N.am      1 <0>        -0.7211
     12 C9         -0.0581   -0.6610   -2.3454 C.2       1 <0>         0.5643
     13 O1         -1.2511   -0.4321   -2.3895 O.2       1 <0>        -0.5250
     14 C10         0.6565   -1.0975   -3.5640 C.ar      1 <0>        -0.1161
     15 C11         2.0256   -1.3665   -3.5147 C.ar      1 <0>        -0.0658
     16 C12         2.6903   -1.7738   -4.6532 C.ar      1 <0>        -0.0787
     17 C13         2.0053   -1.9165   -5.8455 C.ar      1 <0>        -0.0865
     18 C14         0.6423   -1.6513   -5.9054 C.ar      1 <0>         0.1523
     19 C15        -0.0360   -1.2474   -4.7652 C.ar      1 <0>        -0.0467
     20 N2         -0.0454   -1.7966   -7.1128 N.pl3     1 <0>        -0.9535
     21 C16        -1.1834   -2.7149   -7.2016 C.3       1 <0>         0.0858
     22 S1          0.4259   -0.9310   -8.4435 S.o2      1 <0>         2.5987
     23 O2         -0.7742   -0.6972   -9.1676 O.2       1 <0>        -0.9400
     24 O3          1.1801    0.1544   -7.9215 O.2       1 <0>        -0.9381
     25 C17         1.5069   -2.0540   -9.3713 C.3       1 <0>        -0.6734
     26 C18         4.1681   -2.0634   -4.5969 C.3       1 <0>         0.1056
     27 O4          4.3716   -3.4403   -4.2732 O.3       1 <0>        -0.3483
     28 C19         5.6422   -3.8638   -4.1835 C.2       1 <0>         0.4276
     29 O5          6.5514   -3.0911   -4.3736 O.2       1 <0>        -0.4965
     30 C20         5.9346   -5.3031   -3.8459 C.3       1 <0>         0.1462
     31 C21         5.9217   -5.4833   -2.3266 C.3       1 <0>        -0.1455
     32 C22         7.3112   -5.6858   -4.3931 C.3       1 <0>        -0.0613
     33 C23         7.5520   -7.1557   -4.1639 C.ar      1 <0>        -0.0655
     34 C24         8.1486   -7.5840   -2.9928 C.ar      1 <0>        -0.1166
     35 C25         8.3695   -8.9322   -2.7825 C.ar      1 <0>        -0.1212
     36 C26         7.9933   -9.8523   -3.7432 C.ar      1 <0>        -0.1214
     37 C27         7.3959   -9.4241   -4.9139 C.ar      1 <0>        -0.1206
     38 C28         7.1711   -8.0762   -5.1223 C.ar      1 <0>        -0.0904
     39 N3          4.9104   -6.1657   -4.4500 N.3       1 <0>        -0.8157
     40 H2          0.8344    1.8592    0.0482 H         1 <0>         0.0609
     41 H3         -0.7101    1.7944   -0.8342 H         1 <0>         0.0689
     42 H4         -0.7000    1.7653    0.9455 H         1 <0>         0.0716
     43 H5          2.5758   -0.1481    0.4190 H         1 <0>         0.1296
     44 H6          3.7901   -0.9395    2.4091 H         1 <0>         0.1384
     45 H7          0.0781   -1.8801    4.2958 H         1 <0>         0.1397
     46 H8         -1.1331   -1.0785    2.3079 H         1 <0>         0.1375
     47 H9          1.5653   -0.6994   -1.1505 H         1 <0>         0.3991
     48 H10         2.5645   -1.2555   -2.5854 H         1 <0>         0.1316
     49 H11         2.5311   -2.2349   -6.7335 H         1 <0>         0.1289
     50 H12        -1.0960   -1.0451   -4.8084 H         1 <0>         0.1481
     51 H13        -2.1010   -2.1814   -6.9534 H         1 <0>         0.0715
     52 H14        -1.2547   -3.1081   -8.2157 H         1 <0>         0.0800
     53 H15        -1.0413   -3.5384   -6.5018 H         1 <0>         0.0812
     54 H16         0.9491   -2.9484   -9.6489 H         1 <0>         0.1322
     55 H17         1.8632   -1.5538  -10.2719 H         1 <0>         0.1354
     56 H18         2.3579   -2.3345   -8.7507 H         1 <0>         0.1274
     57 H19         4.6178   -1.8477   -5.5661 H         1 <0>         0.0827
     58 H20         4.6320   -1.4384   -3.8338 H         1 <0>         0.0847
     59 H21         4.9410   -5.2106   -1.9367 H         1 <0>         0.0663
     60 H22         6.1332   -6.5243   -2.0823 H         1 <0>         0.0909
     61 H23         6.6817   -4.8433   -1.8783 H         1 <0>         0.0691
     62 H24         7.3492   -5.4737   -5.4616 H         1 <0>         0.0764
     63 H25         8.0797   -5.1075   -3.8803 H         1 <0>         0.0903
     64 H26         8.4425   -6.8651   -2.2423 H         1 <0>         0.1191
     65 H27         8.8363   -9.2668   -1.8679 H         1 <0>         0.1199
     66 H28         8.1665  -10.9056   -3.5792 H         1 <0>         0.1188
     67 H29         7.1023  -10.1429   -5.6646 H         1 <0>         0.1193
     68 H30         6.7009   -7.7420   -6.0354 H         1 <0>         0.1170
     69 H31         4.0005   -5.9762   -4.0571 H         1 <0>         0.3549
     70 H32         4.8989   -6.0648   -5.4538 H         1 <0>         0.3458
@<TRIPOS>BOND
     1    1    2 1
     2    1   40 1
     3    1   41 1
     4    1   42 1
     5    2    3 1
     6    2    4 1
     7    2   11 1
     8    4    9 ar
     9    4    5 ar
    10    5    6 ar
    11    5   43 1
    12    6    7 ar
    13    6   44 1
    14    7    8 ar
    15    7   10 1
    16    8    9 ar
    17    8   45 1
    18    9   46 1
    19   11   12 am
    20   11   47 1
    21   12   13 2
    22   12   14 1
    23   14   19 ar
    24   14   15 ar
    25   15   16 ar
    26   15   48 1
    27   16   17 ar
    28   16   26 1
    29   17   18 ar
    30   17   49 1
    31   18   19 ar
    32   18   20 1
    33   19   50 1
    34   20   21 1
    35   20   22 1
    36   21   51 1
    37   21   52 1
    38   21   53 1
    39   22   23 2
    40   22   24 2
    41   22   25 1
    42   25   54 1
    43   25   55 1
    44   25   56 1
    45   26   27 1
    46   26   57 1
    47   26   58 1
    48   27   28 1
    49   28   29 2
    50   28   30 1
    51   30   31 1
    52   30   32 1
    53   30   39 1
    54   31   59 1
    55   31   60 1
    56   31   61 1
    57   32   33 1
    58   32   62 1
    59   32   63 1
    60   33   38 ar
    61   33   34 ar
    62   34   35 ar
    63   34   64 1
    64   35   36 ar
    65   35   65 1
    66   36   37 ar
    67   36   66 1
    68   37   38 ar
    69   37   67 1
    70   38   68 1
    71   39   69 1
    72   39   70 1
@<TRIPOS>MOLECULE
CHEMBL1210431
   84    86     0     0     0
SMALL
USER_CHARGES

@<TRIPOS>ATOM
      1 C1          0.0495   -0.9660    0.0851 C.3       1 <0>        -0.1532
      2 C2         -0.1932   -2.4574   -0.1551 C.3       1 <0>        -0.0973
      3 C3          0.4308   -3.2657    0.9842 C.3       1 <0>        -0.1535
      4 C4         -1.6983   -2.7273   -0.2071 C.3       1 <0>        -0.1167
      5 C5         -2.3019   -2.0182   -1.4211 C.3       1 <0>        -0.1376
      6 C6         -3.8070   -2.2881   -1.4731 C.3       1 <0>        -0.1469
      7 C7         -4.4107   -1.5790   -2.6871 C.3       1 <0>         0.0252
      8 C8         -5.9316   -1.7446   -2.6703 C.3       1 <0>        -0.1846
      9 N1         -3.8675   -2.1680   -3.9183 N.4       1 <0>        -0.5036
     10 C9         -4.3537   -1.4106   -5.0793 C.3       1 <0>        -0.0506
     11 C10        -3.7880   -2.0240   -6.3617 C.3       1 <0>         0.0754
     12 H1         -2.7009   -2.0670   -6.2951 H         1 <0>         0.1332
     13 C11        -4.1919   -1.1630   -7.5602 C.3       1 <0>         0.1281
     14 H2         -3.8724   -0.1345   -7.3928 H         1 <0>         0.1096
     15 C12        -5.7121   -1.2040   -7.7284 C.3       1 <0>        -0.1018
     16 C13        -6.1211   -0.2608   -8.8303 C.ar      1 <0>        -0.0786
     17 C14        -6.4155    1.0578   -8.5376 C.ar      1 <0>        -0.1066
     18 C15        -6.7907    1.9230   -9.5483 C.ar      1 <0>        -0.1108
     19 C16        -6.8712    1.4697  -10.8517 C.ar      1 <0>        -0.1085
     20 C17        -6.5760    0.1514  -11.1445 C.ar      1 <0>        -0.1072
     21 C18        -6.1966   -0.7127  -10.1344 C.ar      1 <0>        -0.1056
     22 N2         -3.5524   -1.6819   -8.7719 N.am      1 <0>        -0.7244
     23 C19        -3.3290   -0.8636   -9.8192 C.2       1 <0>         0.5648
     24 O1         -3.6581    0.3049   -9.7585 O.2       1 <0>        -0.5004
     25 C20        -2.6836   -1.3873  -11.0421 C.ar      1 <0>        -0.1104
     26 C21        -2.3098   -2.7305  -11.1165 C.ar      1 <0>        -0.1105
     27 C22        -1.7072   -3.2169  -12.2585 C.ar      1 <0>        -0.0841
     28 C23        -1.4716   -2.3785  -13.3322 C.ar      1 <0>        -0.1327
     29 C24        -1.8403   -1.0398  -13.2685 C.ar      1 <0>         0.1680
     30 C25        -2.4514   -0.5426  -12.1271 C.ar      1 <0>        -0.0733
     31 N3         -1.5996   -0.1962  -14.3563 N.pl3     1 <0>        -0.8867
     32 C26        -2.3832    0.9455  -14.5417 C.ar      1 <0>         0.1101
     33 C27        -3.7452    0.8229  -14.7869 C.ar      1 <0>        -0.1081
     34 C28        -4.5168    1.9535  -14.9697 C.ar      1 <0>        -0.1107
     35 C29        -3.9351    3.2067  -14.9092 C.ar      1 <0>        -0.1034
     36 C30        -2.5797    3.3324  -14.6653 C.ar      1 <0>        -0.1064
     37 C31        -1.8033    2.2062  -14.4755 C.ar      1 <0>        -0.0898
     38 S1         -0.3857   -0.5499  -15.4257 S.o2      1 <0>         2.5875
     39 O2         -0.1032    0.6826  -16.0741 O.2       1 <0>        -0.9273
     40 O3          0.6067   -1.2018  -14.6451 O.2       1 <0>        -0.9341
     41 C32        -1.1246   -1.7186  -16.5999 C.3       1 <0>        -0.6714
     42 O4         -4.3076   -3.3449   -6.5274 O.3       1 <0>        -0.5490
     43 H3          1.1218   -0.7737    0.1222 H         1 <0>         0.0590
     44 H4         -0.3950   -0.3901   -0.7265 H         1 <0>         0.0517
     45 H5         -0.4052   -0.6716    1.0310 H         1 <0>         0.0576
     46 H6          0.2616   -2.7517   -1.1010 H         1 <0>         0.0686
     47 H7         -0.0239   -2.9713    1.9300 H         1 <0>         0.0574
     48 H8          0.2579   -4.3282    0.8130 H         1 <0>         0.0560
     49 H9          1.5031   -3.0734    1.0212 H         1 <0>         0.0595
     50 H10        -1.8724   -3.8001   -0.2893 H         1 <0>         0.0677
     51 H11        -2.1664   -2.3518    0.7028 H         1 <0>         0.0718
     52 H12        -2.1278   -0.9453   -1.3390 H         1 <0>         0.0816
     53 H13        -1.8338   -2.3936   -2.3311 H         1 <0>         0.0562
     54 H14        -3.9812   -3.3609   -1.5552 H         1 <0>         0.0896
     55 H15        -4.2751   -1.9126   -0.5631 H         1 <0>         0.1140
     56 H16        -4.1603   -0.5188   -2.6502 H         1 <0>         0.1404
     57 H17        -6.1820   -2.8048   -2.7071 H         1 <0>         0.0833
     58 H18        -6.3346   -1.3076   -1.7567 H         1 <0>         0.1079
     59 H19        -6.3617   -1.2395   -3.5352 H         1 <0>         0.0807
     60 H20        -2.8595   -2.1326   -3.8918 H         1 <0>         0.4269
     61 H21        -5.4427   -1.4488   -5.1079 H         1 <0>         0.1428
     62 H22        -4.0286   -0.3734   -4.9986 H         1 <0>         0.1471
     63 H23        -6.0222   -2.2172   -7.9837 H         1 <0>         0.0821
     64 H24        -6.1890   -0.9020   -6.7959 H         1 <0>         0.0786
     65 H25        -6.3526    1.4119   -7.5192 H         1 <0>         0.1112
     66 H26        -7.0213    2.9530   -9.3195 H         1 <0>         0.1190
     67 H27        -7.1650    2.1455  -11.6413 H         1 <0>         0.1194
     68 H28        -6.6392   -0.2028  -12.1628 H         1 <0>         0.1167
     69 H29        -5.9623   -1.7418  -10.3637 H         1 <0>         0.1100
     70 H30        -3.2898   -2.6144   -8.8203 H         1 <0>         0.4064
     71 H31        -2.4921   -3.3888  -10.2799 H         1 <0>         0.1274
     72 H32        -1.4182   -4.2560  -12.3137 H         1 <0>         0.1406
     73 H33        -0.9993   -2.7649  -14.2233 H         1 <0>         0.1290
     74 H34        -2.7427    0.4962  -12.0771 H         1 <0>         0.1441
     75 H35        -4.1999   -0.1555  -14.8350 H         1 <0>         0.1267
     76 H36        -5.5756    1.8590  -15.1604 H         1 <0>         0.1301
     77 H37        -4.5407    4.0893  -15.0532 H         1 <0>         0.1296
     78 H38        -2.1286    4.3126  -14.6191 H         1 <0>         0.1328
     79 H39        -0.7457    2.3052  -14.2802 H         1 <0>         0.1306
     80 H40        -1.8835   -1.2075  -17.1924 H         1 <0>         0.1364
     81 H41        -0.3501   -2.1088  -17.2602 H         1 <0>         0.1399
     82 H42        -1.5842   -2.5417  -16.0528 H         1 <0>         0.1317
     83 H43        -5.2715   -3.3828   -6.5941 H         1 <0>         0.3912
     84 H44        -4.1685   -3.1281   -3.9931 H         1 <0>         0.4302
@<TRIPOS>BOND
     1    1    2 1
     2    1   43 1
     3    1   44 1
     4    1   45 1
     5    2    3 1
     6    2    4 1
     7    2   46 1
     8    3   47 1
     9    3   48 1
    10    3   49 1
    11    4    5 1
    12    4   50 1
    13    4   51 1
    14    5    6 1
    15    5   52 1
    16    5   53 1
    17    6    7 1
    18    6   54 1
    19    6   55 1
    20    7    8 1
    21    7    9 1
    22    7   56 1
    23    8   57 1
    24    8   58 1
    25    8   59 1
    26    9   10 1
    27    9   60 1
    28    9   84 1
    29   10   11 1
    30   10   61 1
    31   10   62 1
    32   11   12 1
    33   11   13 1
    34   11   42 1
    35   13   14 1
    36   13   15 1
    37   13   22 1
    38   15   16 1
    39   15   63 1
    40   15   64 1
    41   16   21 ar
    42   16   17 ar
    43   17   18 ar
    44   17   65 1
    45   18   19 ar
    46   18   66 1
    47   19   20 ar
    48   19   67 1
    49   20   21 ar
    50   20   68 1
    51   21   69 1
    52   22   23 am
    53   22   70 1
    54   23   24 2
    55   23   25 1
    56   25   30 ar
    57   25   26 ar
    58   26   27 ar
    59   26   71 1
    60   27   28 ar
    61   27   72 1
    62   28   29 ar
    63   28   73 1
    64   29   30 ar
    65   29   31 1
    66   30   74 1
    67   31   32 1
    68   31   38 1
    69   32   37 ar
    70   32   33 ar
    71   33   34 ar
    72   33   75 1
    73   34   35 ar
    74   34   76 1
    75   35   36 ar
    76   35   77 1
    77   36   37 ar
    78   36   78 1
    79   37   79 1
    80   38   39 2
    81   38   40 2
    82   38   41 1
    83   41   80 1
    84   41   81 1
    85   41   82 1
    86   42   83 1
@<TRIPOS>MOLECULE
CHEMBL1210431__1
   84    86     0     0     0
SMALL
USER_CHARGES

@<TRIPOS>ATOM
      1 C1          1.4603    2.5807   -1.0498 C.3       1 <0>        -0.1512
      2 C2          1.5219    1.0622   -0.8728 C.3       1 <0>        -0.0986
      3 C3          2.4982    0.7193    0.2542 C.3       1 <0>        -0.1535
      4 C4          0.1302    0.5330   -0.5205 C.3       1 <0>        -0.1166
      5 C5         -0.8171    0.7650   -1.6994 C.3       1 <0>        -0.1369
      6 C6         -2.2088    0.2358   -1.3471 C.3       1 <0>        -0.1473
      7 C7         -3.1561    0.4678   -2.5260 C.3       1 <0>         0.0257
      8 C8         -4.5128   -0.1716   -2.2235 C.3       1 <0>        -0.1855
      9 N1         -3.3311    1.9110   -2.7368 N.4       1 <0>        -0.5040
     10 C9         -4.1432    2.1352   -3.9402 C.3       1 <0>        -0.0506
     11 C10        -4.3255    3.6383   -4.1598 C.3       1 <0>         0.0754
     12 H1         -4.7469    4.0884   -3.2610 H         1 <0>         0.1337
     13 C11        -5.2728    3.8704   -5.3386 C.3       1 <0>         0.1283
     14 H2         -6.2087    3.3403   -5.1624 H         1 <0>         0.1095
     15 C12        -4.6255    3.3492   -6.6233 C.3       1 <0>        -0.1021
     16 C13        -5.6054    3.4651   -7.7623 C.ar      1 <0>        -0.0785
     17 C14        -6.4677    2.4212   -8.0412 C.ar      1 <0>        -0.1066
     18 C15        -7.3666    2.5276   -9.0860 C.ar      1 <0>        -0.1108
     19 C16        -7.4035    3.6780   -9.8516 C.ar      1 <0>        -0.1085
     20 C17        -6.5418    4.7222   -9.5722 C.ar      1 <0>        -0.1072
     21 C18        -5.6459    4.6175   -8.5247 C.ar      1 <0>        -0.1057
     22 N2         -5.5416    5.3041   -5.4742 N.am      1 <0>        -0.7244
     23 C19        -6.6785    5.7237   -6.0639 C.2       1 <0>         0.5649
     24 O1         -7.4808    4.9126   -6.4834 O.2       1 <0>        -0.5005
     25 C20        -6.9498    7.1708   -6.2008 C.ar      1 <0>        -0.1104
     26 C21        -6.0272    8.1045   -5.7249 C.ar      1 <0>        -0.1106
     27 C22        -6.2828    9.4544   -5.8532 C.ar      1 <0>        -0.0841
     28 C23        -7.4507    9.8877   -6.4526 C.ar      1 <0>        -0.1327
     29 C24        -8.3755    8.9665   -6.9301 C.ar      1 <0>         0.1681
     30 C25        -8.1254    7.6075   -6.8106 C.ar      1 <0>        -0.0733
     31 N3         -9.5549    9.4095   -7.5348 N.pl3     1 <0>        -0.8867
     32 C26       -10.2189    8.5921   -8.4529 C.ar      1 <0>         0.1101
     33 C27        -9.6003    8.2394   -9.6458 C.ar      1 <0>        -0.1080
     34 C28       -10.2596    7.4314  -10.5511 C.ar      1 <0>        -0.1107
     35 C29       -11.5342    6.9736  -10.2714 C.ar      1 <0>        -0.1034
     36 C30       -12.1530    7.3227   -9.0849 C.ar      1 <0>        -0.1064
     37 C31       -11.4971    8.1254   -8.1724 C.ar      1 <0>        -0.0898
     38 S1        -10.1654   10.9033   -7.1632 S.o2      1 <0>         2.5878
     39 O2        -11.5345   10.8390   -7.5383 O.2       1 <0>        -0.9273
     40 O3         -9.7948   11.1197   -5.8086 O.2       1 <0>        -0.9341
     41 C32        -9.2743   12.0537   -8.2462 C.3       1 <0>        -0.6714
     42 O4         -3.0583    4.2355   -4.4423 O.3       1 <0>        -0.5494
     43 H3          2.4517    2.9577   -1.3007 H         1 <0>         0.0596
     44 H4          0.7647    2.8250   -1.8526 H         1 <0>         0.0491
     45 H5          1.1206    3.0411   -0.1220 H         1 <0>         0.0562
     46 H6          1.8616    0.6018   -1.8005 H         1 <0>         0.0711
     47 H7          2.1585    1.1797    1.1819 H         1 <0>         0.0565
     48 H8          2.5421   -0.3625    0.3802 H         1 <0>         0.0570
     49 H9          3.4897    1.0963    0.0032 H         1 <0>         0.0595
     50 H10         0.1905   -0.5343   -0.3075 H         1 <0>         0.0711
     51 H11        -0.2467    1.0579    0.3572 H         1 <0>         0.0681
     52 H12        -0.8775    1.8323   -1.9124 H         1 <0>         0.0599
     53 H13        -0.4402    0.2401   -2.5771 H         1 <0>         0.0781
     54 H14        -2.1484   -0.8315   -1.1341 H         1 <0>         0.1139
     55 H15        -2.5857    0.7607   -0.4694 H         1 <0>         0.0896
     56 H16        -2.7346    0.0178   -3.4248 H         1 <0>         0.1400
     57 H17        -4.9343    0.2785   -1.3247 H         1 <0>         0.0833
     58 H18        -5.1877   -0.0063   -3.0633 H         1 <0>         0.0818
     59 H19        -4.3830   -1.2424   -2.0670 H         1 <0>         0.1079
     60 H20        -3.7963    2.3138   -1.9372 H         1 <0>         0.4267
     61 H21        -3.6406    1.7001   -4.8040 H         1 <0>         0.1414
     62 H22        -5.1187    1.6657   -3.8128 H         1 <0>         0.1487
     63 H23        -3.7366    3.9388   -6.8473 H         1 <0>         0.0821
     64 H24        -4.3446    2.3044   -6.4906 H         1 <0>         0.0789
     65 H25        -6.4389    1.5225   -7.4430 H         1 <0>         0.1112
     66 H26        -8.0397    1.7118   -9.3044 H         1 <0>         0.1190
     67 H27        -8.1052    3.7608  -10.6684 H         1 <0>         0.1194
     68 H28        -6.5704    5.6208  -10.1705 H         1 <0>         0.1166
     69 H29        -4.9753    5.4348   -8.3040 H         1 <0>         0.1100
     70 H30        -4.9014    5.9514   -5.1395 H         1 <0>         0.4064
     71 H31        -5.1136    7.7701   -5.2560 H         1 <0>         0.1274
     72 H32        -5.5680   10.1749   -5.4838 H         1 <0>         0.1406
     73 H33        -7.6453   10.9456   -6.5498 H         1 <0>         0.1290
     74 H34        -8.8405    6.8899   -7.1849 H         1 <0>         0.1441
     75 H35        -8.6052    8.5972   -9.8651 H         1 <0>         0.1267
     76 H36        -9.7793    7.1568  -11.4786 H         1 <0>         0.1300
     77 H37       -12.0478    6.3424  -10.9815 H         1 <0>         0.1296
     78 H38       -13.1486    6.9638   -8.8698 H         1 <0>         0.1328
     79 H39       -11.9789    8.3937   -7.2439 H         1 <0>         0.1306
     80 H40        -9.5665   11.8783   -9.2816 H         1 <0>         0.1364
     81 H41        -9.5198   13.0786   -7.9681 H         1 <0>         0.1399
     82 H42        -8.2011   11.8955   -8.1398 H         1 <0>         0.1317
     83 H43        -2.6242    3.8825   -5.2310 H         1 <0>         0.3913
     84 H44        -2.4281    2.3456   -2.8547 H         1 <0>         0.4302
@<TRIPOS>BOND
     1    1    2 1
     2    1   43 1
     3    1   44 1
     4    1   45 1
     5    2    3 1
     6    2    4 1
     7    2   46 1
     8    3   47 1
     9    3   48 1
    10    3   49 1
    11    4    5 1
    12    4   50 1
    13    4   51 1
    14    5    6 1
    15    5   52 1
    16    5   53 1
    17    6    7 1
    18    6   54 1
    19    6   55 1
    20    7    8 1
    21    7    9 1
    22    7   56 1
    23    8   57 1
    24    8   58 1
    25    8   59 1
    26    9   10 1
    27    9   60 1
    28    9   84 1
    29   10   11 1
    30   10   61 1
    31   10   62 1
    32   11   12 1
    33   11   13 1
    34   11   42 1
    35   13   14 1
    36   13   15 1
    37   13   22 1
    38   15   16 1
    39   15   63 1
    40   15   64 1
    41   16   21 ar
    42   16   17 ar
    43   17   18 ar
    44   17   65 1
    45   18   19 ar
    46   18   66 1
    47   19   20 ar
    48   19   67 1
    49   20   21 ar
    50   20   68 1
    51   21   69 1
    52   22   23 am
    53   22   70 1
    54   23   24 2
    55   23   25 1
    56   25   30 ar
    57   25   26 ar
    58   26   27 ar
    59   26   71 1
    60   27   28 ar
    61   27   72 1
    62   28   29 ar
    63   28   73 1
    64   29   30 ar
    65   29   31 1
    66   30   74 1
    67   31   32 1
    68   31   38 1
    69   32   37 ar
    70   32   33 ar
    71   33   34 ar
    72   33   75 1
    73   34   35 ar
    74   34   76 1
    75   35   36 ar
    76   35   77 1
    77   36   37 ar
    78   36   78 1
    79   37   79 1
    80   38   39 2
    81   38   40 2
    82   38   41 1
    83   41   80 1
    84   41   81 1
    85   41   82 1
    86   42   83 1
@<TRIPOS>MOLECULE
CHEMBL1090025
   42    45     0     0     0
SMALL
USER_CHARGES

@<TRIPOS>ATOM
      1 C1         -1.5925    1.3380    0.3746 C.3       1 <0>         0.0624
      2 N1         -0.9657    0.0220    0.2276 N.am      1 <0>        -0.5523
      3 C2         -1.6402   -1.1424    0.1239 C.2       1 <0>         0.5444
      4 O1         -2.8422   -1.3017    0.1333 O.2       1 <0>        -0.3832
      5 C3         -0.5701   -2.2081   -0.0072 C.3       1 <0>         0.2188
      6 N2          0.6909   -1.4510    0.0424 N.pl3     1 <0>        -0.6243
      7 C4          0.3885   -0.1960    0.1703 C.cat     1 <0>         0.7344
      8 N3          1.3243    0.8079    0.2446 N.pl3     1 <0>        -0.7747
      9 C5         -0.7016   -2.9305   -1.3233 C.ar      1 <0>        -0.0683
     10 C6          0.4027   -3.1275   -2.1382 C.ar      1 <0>        -0.1585
     11 C7          0.2436   -3.7943   -3.3383 C.ar      1 <0>         0.1204
     12 N4         -0.9403   -4.2401   -3.7105 N.ar      1 <0>        -0.4613
     13 C8         -2.0121   -4.0708   -2.9611 C.ar      1 <0>         0.1249
     14 C9         -1.9287   -3.4188   -1.7453 C.ar      1 <0>        -0.1478
     15 C10        -0.6486   -3.1805    1.1414 C.ar      1 <0>        -0.1131
     16 C11         0.4846   -3.4686    1.8808 C.ar      1 <0>        -0.1087
     17 C12         0.4197   -4.3601    2.9362 C.ar      1 <0>        -0.0983
     18 C13        -0.7775   -4.9678    3.2570 C.ar      1 <0>        -0.0843
     19 C14        -1.9217   -4.6813    2.5157 C.ar      1 <0>         0.0199
     20 C15        -1.8519   -3.7777    1.4572 C.ar      1 <0>        -0.0935
     21 C16        -3.2118   -5.3316    2.8560 C.2       1 <0>        -0.1700
     22 C17        -3.4615   -6.2905    3.9379 C.2       1 <0>        -0.2047
     23 C18        -4.7660   -6.6035    3.8624 C.2       1 <0>        -0.0194
     24 O2         -5.3190   -5.9275    2.8440 O.3       1 <0>        -0.1729
     25 C19        -4.4062   -5.1576    2.2339 C.2       1 <0>        -0.0009
     26 H1         -0.8195    2.1044    0.4307 H         1 <0>         0.1017
     27 H2         -2.2351    1.5323   -0.4841 H         1 <0>         0.1103
     28 H3         -2.1893    1.3563    1.2865 H         1 <0>         0.1107
     29 H4          1.0396    1.7300    0.3433 H         1 <0>         0.4451
     30 H5          2.2694    0.5945    0.1982 H         1 <0>         0.4476
     31 H6          1.3748   -2.7642   -1.8392 H         1 <0>         0.1333
     32 H7          1.0988   -3.9519   -3.9788 H         1 <0>         0.1703
     33 H8         -2.9652   -4.4496   -3.2994 H         1 <0>         0.1730
     34 H9         -2.8091   -3.2876   -1.1337 H         1 <0>         0.1489
     35 H10         1.4234   -2.9959    1.6328 H         1 <0>         0.1200
     36 H11         1.3073   -4.5814    3.5102 H         1 <0>         0.1401
     37 H12        -0.8270   -5.6643    4.0809 H         1 <0>         0.1382
     38 H13        -2.7369   -3.5488    0.8820 H         1 <0>         0.1354
     39 H14        -2.7428   -6.6683    4.6500 H         1 <0>         0.1561
     40 H15        -5.2854   -7.2891    4.5156 H         1 <0>         0.2103
     41 H16        -4.5896   -4.5103    1.3891 H         1 <0>         0.2042
     42 H17         1.5851   -1.8224   -0.0145 H         1 <0>         0.4659
@<TRIPOS>BOND
     1    1    2 1
     2    1   26 1
     3    1   27 1
     4    1   28 1
     5    2    7 1
     6    2    3 am
     7    3    4 2
     8    3    5 1
     9    5    6 1
    10    5    9 1
    11    5   15 1
    12    6    7 2
    13    6   42 1
    14    7    8 1
    15    8   29 1
    16    8   30 1
    17    9   14 ar
    18    9   10 ar
    19   10   11 ar
    20   10   31 1
    21   11   12 ar
    22   11   32 1
    23   12   13 ar
    24   13   14 ar
    25   13   33 1
    26   14   34 1
    27   15   20 ar
    28   15   16 ar
    29   16   17 ar
    30   16   35 1
    31   17   18 ar
    32   17   36 1
    33   18   19 ar
    34   18   37 1
    35   19   20 ar
    36   19   21 1
    37   20   38 1
    38   21   25 2
    39   21   22 1
    40   22   23 2
    41   22   39 1
    42   23   24 1
    43   23   40 1
    44   24   25 1
    45   25   41 1
@<TRIPOS>MOLECULE
CHEMBL1090025__1
   42    45     0     0     0
SMALL
USER_CHARGES

@<TRIPOS>ATOM
      1 C1         -1.5562    1.3661    0.3916 C.3       1 <0>         0.0605
      2 N1         -0.9452    0.0433    0.2400 N.am      1 <0>        -0.5529
      3 C2         -1.6380   -1.1058    0.1282 C.2       1 <0>         0.5434
      4 O1         -2.8442   -1.2289    0.1347 O.2       1 <0>        -0.3890
      5 C3         -0.6155   -2.2137   -0.0076 C.3       1 <0>         0.2292
      6 N2          0.6828   -1.5221    0.0450 N.pl3     1 <0>        -0.6638
      7 C4          0.4084   -0.1843    0.1876 C.cat     1 <0>         0.7341
      8 N3          1.3141    0.7475    0.2663 N.pl3     1 <0>        -0.7303
      9 C5         -0.7807   -2.9237   -1.3266 C.ar      1 <0>        -0.0668
     10 C6         -2.0279   -3.3606   -1.7461 C.ar      1 <0>        -0.1499
     11 C7         -2.1408   -4.0082   -2.9618 C.ar      1 <0>         0.1231
     12 N4         -1.0802   -4.2120   -3.7185 N.ar      1 <0>        -0.4628
     13 C8          0.1210   -3.8104   -3.3516 C.ar      1 <0>         0.1183
     14 C9          0.3100   -3.1506   -2.1520 C.ar      1 <0>        -0.1572
     15 C10        -0.7398   -3.1879    1.1354 C.ar      1 <0>        -0.1118
     16 C11         0.3762   -3.5238    1.8807 C.ar      1 <0>        -0.1070
     17 C12         0.2693   -4.4172    2.9310 C.ar      1 <0>        -0.1004
     18 C13        -0.9530   -4.9791    3.2409 C.ar      1 <0>        -0.0857
     19 C14        -2.0801   -4.6443    2.4936 C.ar      1 <0>         0.0180
     20 C15        -1.9677   -3.7389    1.4402 C.ar      1 <0>        -0.0949
     21 C16        -3.3969   -5.2452    2.8220 C.2       1 <0>        -0.1690
     22 C17        -3.6912   -6.1988    3.8974 C.2       1 <0>        -0.2049
     23 C18        -5.0065   -6.4600    3.8117 C.2       1 <0>        -0.0199
     24 O2         -5.5256   -5.7578    2.7933 O.3       1 <0>        -0.1732
     25 C19        -4.5794   -5.0214    2.1931 C.2       1 <0>        -0.0020
     26 H1         -0.7740    2.1226    0.4549 H         1 <0>         0.1002
     27 H2         -2.1929    1.5730   -0.4686 H         1 <0>         0.1115
     28 H3         -2.1564    1.3870    1.3013 H         1 <0>         0.1119
     29 H4          1.0484    1.6747    0.3695 H         1 <0>         0.4496
     30 H5         -2.9001   -3.1973   -1.1305 H         1 <0>         0.1481
     31 H6         -3.1087   -4.3516   -3.2958 H         1 <0>         0.1717
     32 H7          0.9663   -3.9956   -3.9978 H         1 <0>         0.1691
     33 H8          1.2955   -2.8197   -1.8592 H         1 <0>         0.1337
     34 H9          1.3345   -3.0871    1.6413 H         1 <0>         0.1208
     35 H10         1.1437   -4.6760    3.5097 H         1 <0>         0.1389
     36 H11        -1.0352   -5.6771    4.0608 H         1 <0>         0.1371
     37 H12        -2.8392   -3.4726    0.8605 H         1 <0>         0.1348
     38 H13        -2.9927   -6.6080    4.6122 H         1 <0>         0.1559
     39 H14        -5.5568   -7.1279    4.4580 H         1 <0>         0.2100
     40 H15        -4.7315   -4.3632    1.3504 H         1 <0>         0.2041
     41 H16         1.5604   -1.9311   -0.0135 H         1 <0>         0.4643
     42 H17         2.2547    0.5147    0.2217 H         1 <0>         0.4532
@<TRIPOS>BOND
     1    1    2 1
     2    1   26 1
     3    1   27 1
     4    1   28 1
     5    2    7 1
     6    2    3 am
     7    3    4 2
     8    3    5 1
     9    5    6 1
    10    5    9 1
    11    5   15 1
    12    6    7 1
    13    6   41 1
    14    7    8 2
    15    8   29 1
    16    8   42 1
    17    9   14 ar
    18    9   10 ar
    19   10   11 ar
    20   10   30 1
    21   11   12 ar
    22   11   31 1
    23   12   13 ar
    24   13   14 ar
    25   13   32 1
    26   14   33 1
    27   15   20 ar
    28   15   16 ar
    29   16   17 ar
    30   16   34 1
    31   17   18 ar
    32   17   35 1
    33   18   19 ar
    34   18   36 1
    35   19   20 ar
    36   19   21 1
    37   20   37 1
    38   21   25 2
    39   21   22 1
    40   22   23 2
    41   22   38 1
    42   23   24 1
    43   23   39 1
    44   24   25 1
    45   25   40 1
@<TRIPOS>MOLECULE
CHEMBL1090025__2
   42    45     0     0     0
SMALL
USER_CHARGES

@<TRIPOS>ATOM
      1 C1         -0.5463    1.4792   -0.4185 C.3       1 <0>         0.0624
      2 N1         -0.3179    0.0411   -0.2578 N.am      1 <0>        -0.5524
      3 C2         -1.2946   -0.8848   -0.1556 C.2       1 <0>         0.5445
      4 O1         -2.4925   -0.6985   -0.1779 O.2       1 <0>        -0.3832
      5 C3         -0.5701   -2.2081   -0.0072 C.3       1 <0>         0.2188
      6 N2          0.8537   -1.8381   -0.0471 N.pl3     1 <0>        -0.6243
      7 C4          0.9192   -0.5512   -0.1965 C.cat     1 <0>         0.7344
      8 N3          2.1009    0.1456   -0.2805 N.pl3     1 <0>        -0.7746
      9 C5         -0.9120   -2.8534    1.3110 C.ar      1 <0>        -0.0679
     10 C6          0.0853   -3.3321    2.1467 C.ar      1 <0>        -0.1587
     11 C7         -0.2664   -3.9179    3.3481 C.ar      1 <0>         0.1204
     12 N4         -1.5323   -4.0241    3.7017 N.ar      1 <0>        -0.4614
     13 C8         -2.5069   -3.5801    2.9322 C.ar      1 <0>         0.1250
     14 C9         -2.2312   -2.9772    1.7195 C.ar      1 <0>        -0.1478
     15 C10        -0.9095   -3.1280   -1.1516 C.ar      1 <0>        -0.1136
     16 C11         0.1025   -3.7439   -1.8660 C.ar      1 <0>        -0.1086
     17 C12        -0.2019   -4.5892   -2.9174 C.ar      1 <0>        -0.0983
     18 C13        -1.5187   -4.8226   -3.2597 C.ar      1 <0>        -0.0842
     19 C14        -2.5418   -4.2051   -2.5437 C.ar      1 <0>         0.0199
     20 C15        -2.2295   -3.3590   -1.4814 C.ar      1 <0>        -0.0935
     21 C16        -3.9594   -4.4521   -2.9072 C.2       1 <0>        -0.1701
     22 C17        -4.4601   -5.3167   -3.9816 C.2       1 <0>        -0.2047
     23 C18        -5.8001   -5.2294   -3.9339 C.2       1 <0>        -0.0194
     24 O2         -6.1484   -4.3997   -2.9389 O.3       1 <0>        -0.1729
     25 C19        -5.0614   -3.9294   -2.3102 C.2       1 <0>        -0.0009
     26 H1          0.4121    1.9947   -0.4800 H         1 <0>         0.1017
     27 H2         -1.1139    1.6572   -1.3319 H         1 <0>         0.1105
     28 H3         -1.1072    1.8558    0.4370 H         1 <0>         0.1105
     29 H4          2.0890    1.1094   -0.3889 H         1 <0>         0.4451
     30 H5          2.9468   -0.3265   -0.2313 H         1 <0>         0.4476
     31 H6          1.1238   -3.2487    1.8624 H         1 <0>         0.1332
     32 H7          0.5045   -4.2934    4.0047 H         1 <0>         0.1703
     33 H8         -3.5320   -3.6851    3.2553 H         1 <0>         0.1730
     34 H9         -3.0334   -2.6111    1.0960 H         1 <0>         0.1488
     35 H10         1.1341   -3.5635   -1.6020 H         1 <0>         0.1199
     36 H11         0.5920   -5.0674   -3.4718 H         1 <0>         0.1402
     37 H12        -1.7553   -5.4824   -4.0814 H         1 <0>         0.1382
     38 H13        -3.0189   -2.8811   -0.9202 H         1 <0>         0.1355
     39 H14        -3.8712   -5.9036   -4.6709 H         1 <0>         0.1562
     40 H15        -6.4859   -5.7437   -4.5908 H         1 <0>         0.2103
     41 H16        -5.0621   -3.2481   -1.4721 H         1 <0>         0.2043
     42 H17         1.6062   -2.4463    0.0216 H         1 <0>         0.4659
@<TRIPOS>BOND
     1    1    2 1
     2    1   26 1
     3    1   27 1
     4    1   28 1
     5    2    7 1
     6    2    3 am
     7    3    4 2
     8    3    5 1
     9    5    6 1
    10    5    9 1
    11    5   15 1
    12    6    7 2
    13    6   42 1
    14    7    8 1
    15    8   29 1
    16    8   30 1
    17    9   14 ar
    18    9   10 ar
    19   10   11 ar
    20   10   31 1
    21   11   12 ar
    22   11   32 1
    23   12   13 ar
    24   13   14 ar
    25   13   33 1
    26   14   34 1
    27   15   20 ar
    28   15   16 ar
    29   16   17 ar
    30   16   35 1
    31   17   18 ar
    32   17   36 1
    33   18   19 ar
    34   18   37 1
    35   19   20 ar
    36   19   21 1
    37   20   38 1
    38   21   25 2
    39   21   22 1
    40   22   23 2
    41   22   39 1
    42   23   24 1
    43   23   40 1
    44   24   25 1
    45   25   41 1
@<TRIPOS>MOLECULE
CHEMBL1090025__3
   42    45     0     0     0
SMALL
USER_CHARGES

@<TRIPOS>ATOM
      1 C1         -0.5528    1.4739   -0.5146 C.3       1 <0>         0.0606
      2 N1         -0.3232    0.0379   -0.3378 N.am      1 <0>        -0.5527
      3 C2         -1.2979   -0.8684   -0.1344 C.2       1 <0>         0.5434
      4 O1         -2.4886   -0.6500   -0.0666 O.2       1 <0>        -0.3868
      5 C3         -0.6155   -2.2137   -0.0076 C.3       1 <0>         0.2297
      6 N2          0.8168   -1.9140   -0.1662 N.pl3     1 <0>        -0.6656
      7 C4          0.9139   -0.5587   -0.3639 C.cat     1 <0>         0.7343
      8 N3          2.0337    0.0789   -0.5490 N.pl3     1 <0>        -0.7305
      9 C5         -0.8810   -2.8129    1.3494 C.ar      1 <0>        -0.0669
     10 C6          0.1577   -3.3123    2.1202 C.ar      1 <0>        -0.1574
     11 C7         -0.1240   -3.8544    3.3599 C.ar      1 <0>         0.1177
     12 N4         -1.3625   -3.9001    3.8105 N.ar      1 <0>        -0.4630
     13 C8         -2.3747   -3.4347    3.1049 C.ar      1 <0>         0.1229
     14 C9         -2.1689   -2.8726    1.8592 C.ar      1 <0>        -0.1490
     15 C10        -1.0821   -3.1454   -1.0963 C.ar      1 <0>        -0.1123
     16 C11        -2.4357   -3.3386   -1.3066 C.ar      1 <0>        -0.0968
     17 C12        -2.8708   -4.1922   -2.3040 C.ar      1 <0>        -0.0958
     18 C13        -1.9554   -4.8567   -3.0952 C.ar      1 <0>        -0.0838
     19 C14        -0.5911   -4.6659   -2.8878 C.ar      1 <0>         0.0095
     20 C15        -0.1583   -3.7999   -1.8854 C.ar      1 <0>        -0.1010
     21 C16         0.3978   -5.3776   -3.7353 C.2       1 <0>        -0.1602
     22 C17         0.1152   -6.3084   -4.8336 C.2       1 <0>        -0.2051
     23 C18         1.3110   -6.7000   -5.3049 C.2       1 <0>        -0.0173
     24 O2          2.2780   -6.0961   -4.5978 O.3       1 <0>        -0.1746
     25 C19         1.7512   -5.2974   -3.6584 C.2       1 <0>        -0.0142
     26 H1          0.4013    1.9784   -0.6666 H         1 <0>         0.1001
     27 H2         -1.1916    1.6355   -1.3829 H         1 <0>         0.1119
     28 H3         -1.0391    1.8762    0.3741 H         1 <0>         0.1117
     29 H4          2.0287    1.0400   -0.6800 H         1 <0>         0.4498
     30 H5          1.1740   -3.2784    1.7564 H         1 <0>         0.1330
     31 H6          0.6794   -4.2456    3.9664 H         1 <0>         0.1688
     32 H7         -3.3756   -3.4897    3.5070 H         1 <0>         0.1719
     33 H8         -3.0014   -2.4887    1.2883 H         1 <0>         0.1501
     34 H9         -3.1553   -2.8212   -0.6894 H         1 <0>         0.1377
     35 H10        -3.9287   -4.3394   -2.4639 H         1 <0>         0.1419
     36 H11        -2.2963   -5.5236   -3.8733 H         1 <0>         0.1372
     37 H12         0.8981   -3.6450   -1.7233 H         1 <0>         0.1181
     38 H13        -0.8565   -6.6164   -5.1905 H         1 <0>         0.1570
     39 H14         1.4683   -7.3900   -6.1208 H         1 <0>         0.2108
     40 H15         2.3089   -4.6940   -2.9575 H         1 <0>         0.1988
     41 H16         1.5487   -2.5500   -0.1399 H         1 <0>         0.4633
     42 H17         2.8731   -0.4071   -0.5560 H         1 <0>         0.4529
@<TRIPOS>BOND
     1    1    2 1
     2    1   26 1
     3    1   27 1
     4    1   28 1
     5    2    7 1
     6    2    3 am
     7    3    4 2
     8    3    5 1
     9    5    6 1
    10    5    9 1
    11    5   15 1
    12    6    7 1
    13    6   41 1
    14    7    8 2
    15    8   29 1
    16    8   42 1
    17    9   14 ar
    18    9   10 ar
    19   10   11 ar
    20   10   30 1
    21   11   12 ar
    22   11   31 1
    23   12   13 ar
    24   13   14 ar
    25   13   32 1
    26   14   33 1
    27   15   20 ar
    28   15   16 ar
    29   16   17 ar
    30   16   34 1
    31   17   18 ar
    32   17   35 1
    33   18   19 ar
    34   18   36 1
    35   19   20 ar
    36   19   21 1
    37   20   37 1
    38   21   25 2
    39   21   22 1
    40   22   23 2
    41   22   38 1
    42   23   24 1
    43   23   39 1
    44   24   25 1
    45   25   40 1
@<TRIPOS>MOLECULE
CHEMBL257091
   93    96     0     0     0
SMALL
USER_CHARGES

@<TRIPOS>ATOM
      1 C1          2.1108    0.7405   -1.2148 C.3       1 <0>        -0.1508
      2 C2          2.5908   -0.6867   -1.4861 C.3       1 <0>        -0.1385
      3 C3          3.1784   -1.2796   -0.2039 C.3       1 <0>         0.1136
      4 N1          3.6380   -2.6461   -0.4638 N.am      1 <0>        -0.6045
      5 C4          5.0123   -2.8839   -0.9121 C.3       1 <0>         0.0991
      6 C5          5.9709   -2.7110    0.2678 C.3       1 <0>        -0.1469
      7 C6          7.3869   -3.0964   -0.1648 C.3       1 <0>        -0.1528
      8 C7          2.7966   -3.6846   -0.2904 C.2       1 <0>         0.5577
      9 O1          1.6324   -3.4824   -0.0053 O.2       1 <0>        -0.5227
     10 C8          3.2896   -5.0697   -0.4468 C.ar      1 <0>        -0.1234
     11 C9          4.4551   -5.4761    0.2075 C.ar      1 <0>        -0.0638
     12 C10         4.9168   -6.7691    0.0624 C.ar      1 <0>        -0.0896
     13 C11         4.2310   -7.6690   -0.7294 C.ar      1 <0>        -0.0682
     14 C12         3.0647   -7.2757   -1.3895 C.ar      1 <0>        -0.1444
     15 C13         2.5899   -5.9740   -1.2424 C.ar      1 <0>        -0.0147
     16 C14         2.3323   -8.2402   -2.2377 C.2       1 <0>         0.5715
     17 O2          1.3762   -7.8711   -2.8913 O.2       1 <0>        -0.5180
     18 N2          2.7246   -9.5287   -2.2861 N.am      1 <0>        -0.7200
     19 C15         2.0443  -10.4685   -3.1806 C.3       1 <0>         0.1038
     20 H1          1.0337  -10.1126   -3.3808 H         1 <0>         0.0994
     21 C16         2.8186  -10.5719   -4.4961 C.3       1 <0>        -0.1088
     22 C17         2.7390   -9.2584   -5.2305 C.ar      1 <0>        -0.0294
     23 C18         1.6389   -8.9725   -6.0167 C.ar      1 <0>        -0.1597
     24 C19         1.5648   -7.7660   -6.6924 C.ar      1 <0>         0.1456
     25 C20         2.5929   -6.8461   -6.5797 C.ar      1 <0>        -0.1869
     26 C21         3.6940   -7.1333   -5.7916 C.ar      1 <0>         0.1455
     27 C22         3.7635   -8.3383   -5.1127 C.ar      1 <0>        -0.1559
     28 F1          4.6981   -6.2363   -5.6807 F         1 <0>        -0.1243
     29 F2          0.4898   -7.4872   -7.4616 F         1 <0>        -0.1261
     30 C23         1.9780  -11.8461   -2.5181 C.3       1 <0>         0.0874
     31 H2          1.5047  -11.7566   -1.5403 H         1 <0>         0.1327
     32 C24         1.1598  -12.7952   -3.3958 C.3       1 <0>        -0.0098
     33 H3          1.6334  -12.8844   -4.3735 H         1 <0>         0.1457
     34 C25         1.0951  -14.1731   -2.7335 C.3       1 <0>        -0.1328
     35 C26         0.2756  -15.1195   -3.6156 C.3       1 <0>        -0.0958
     36 H4          0.7760  -15.2480   -4.5754 H         1 <0>         0.0903
     37 C27        -1.1145  -14.5173   -3.8393 C.3       1 <0>        -0.1478
     38 C28        -0.9680  -13.1267   -4.4607 C.3       1 <0>        -0.0070
     39 N3         -0.1984  -12.2626   -3.5575 N.4       1 <0>        -0.5052
     40 C29         0.1415  -16.4770   -2.9227 C.3       1 <0>        -0.0794
     41 C30         1.5322  -17.0718   -2.6927 C.3       1 <0>        -0.1166
     42 C31         1.3981  -18.4294   -1.9998 C.3       1 <0>        -0.1225
     43 C32         0.5792  -19.3736   -2.8823 C.3       1 <0>        -0.1240
     44 C33        -0.8116  -18.7788   -3.1123 C.3       1 <0>        -0.1226
     45 C34        -0.6774  -17.4213   -3.8052 C.3       1 <0>        -0.1169
     46 O3          3.3008  -12.3634   -2.3615 O.3       1 <0>        -0.5214
     47 C35         6.1751   -7.2002    0.7709 C.3       1 <0>        -0.1197
     48 H5          1.3463    0.7252   -0.4380 H         1 <0>         0.0579
     49 H6          2.9520    1.3502   -0.8847 H         1 <0>         0.0567
     50 H7          1.6922    1.1629   -2.1282 H         1 <0>         0.0591
     51 H8          1.7497   -1.2963   -1.8162 H         1 <0>         0.0661
     52 H9          3.3553   -0.6713   -2.2629 H         1 <0>         0.0624
     53 H10         4.0195   -0.6699    0.1261 H         1 <0>         0.0817
     54 H11         2.4139   -1.2949    0.5729 H         1 <0>         0.0860
     55 H12         5.0966   -3.8979   -1.3032 H         1 <0>         0.0857
     56 H13         5.2676   -2.1701   -1.6953 H         1 <0>         0.0813
     57 H14         5.9611   -1.6712    0.5945 H         1 <0>         0.0721
     58 H15         5.6547   -3.3532    1.0898 H         1 <0>         0.0673
     59 H16         8.0836   -2.8915    0.6480 H         1 <0>         0.0626
     60 H17         7.4159   -4.1583   -0.4091 H         1 <0>         0.0559
     61 H18         7.6701   -2.5140   -1.0416 H         1 <0>         0.0600
     62 H19         4.9963   -4.7771    0.8280 H         1 <0>         0.1438
     63 H20         4.5976   -8.6790   -0.8387 H         1 <0>         0.1296
     64 H21         1.6859   -5.6662   -1.7469 H         1 <0>         0.1421
     65 H22         3.4575   -9.8338   -1.7286 H         1 <0>         0.4128
     66 H23         3.8618  -10.8081   -4.2861 H         1 <0>         0.1002
     67 H24         2.3847  -11.3595   -5.1121 H         1 <0>         0.0892
     68 H25         0.8369   -9.6904   -6.1045 H         1 <0>         0.1317
     69 H26         2.5362   -5.9050   -7.1066 H         1 <0>         0.1521
     70 H27         4.6205   -8.5608   -4.4943 H         1 <0>         0.1395
     71 H28         2.1042  -14.5680   -2.6155 H         1 <0>         0.1231
     72 H29         0.6214  -14.0852   -1.7558 H         1 <0>         0.0924
     73 H30        -1.6849  -15.1582   -4.5117 H         1 <0>         0.1174
     74 H31        -1.6341  -14.4365   -2.8846 H         1 <0>         0.0912
     75 H32        -0.4486  -13.2087   -5.4154 H         1 <0>         0.1323
     76 H33        -1.9560  -12.6951   -4.6215 H         1 <0>         0.1380
     77 H34        -0.6539  -12.2268   -2.6579 H         1 <0>         0.4296
     78 H35        -0.3614  -16.3477   -1.9644 H         1 <0>         0.0765
     79 H36         2.0352  -17.2011   -3.6510 H         1 <0>         0.0648
     80 H37         2.1157  -16.3991   -2.0640 H         1 <0>         0.0641
     81 H38         2.3889  -18.8531   -1.8360 H         1 <0>         0.0659
     82 H39         0.8952  -18.3000   -1.0415 H         1 <0>         0.0627
     83 H40         1.0821  -19.5029   -3.8406 H         1 <0>         0.0627
     84 H41         0.4836  -20.3407   -2.3887 H         1 <0>         0.0653
     85 H42        -1.3950  -19.4515   -3.7410 H         1 <0>         0.0659
     86 H43        -1.3145  -18.6495   -2.1540 H         1 <0>         0.0628
     87 H44        -1.6682  -16.9975   -3.9691 H         1 <0>         0.0631
     88 H45        -0.1745  -17.5506   -4.7635 H         1 <0>         0.0651
     89 H46         3.7826  -12.4696   -3.1931 H         1 <0>         0.3889
     90 H47         5.9211   -7.5944    1.7549 H         1 <0>         0.0782
     91 H48         6.6738   -7.9739    0.1872 H         1 <0>         0.0724
     92 H49         6.8404   -6.3441    0.8831 H         1 <0>         0.0744
     93 H50        -0.1498  -11.3321   -3.9449 H         1 <0>         0.4261
@<TRIPOS>BOND
     1    1    2 1
     2    1   48 1
     3    1   49 1
     4    1   50 1
     5    2    3 1
     6    2   51 1
     7    2   52 1
     8    3    4 1
     9    3   53 1
    10    3   54 1
    11    4    5 1
    12    4    8 am
    13    5    6 1
    14    5   55 1
    15    5   56 1
    16    6    7 1
    17    6   57 1
    18    6   58 1
    19    7   59 1
    20    7   60 1
    21    7   61 1
    22    8    9 2
    23    8   10 1
    24   10   15 ar
    25   10   11 ar
    26   11   12 ar
    27   11   62 1
    28   12   13 ar
    29   12   47 1
    30   13   14 ar
    31   13   63 1
    32   14   15 ar
    33   14   16 1
    34   15   64 1
    35   16   17 2
    36   16   18 am
    37   18   19 1
    38   18   65 1
    39   19   20 1
    40   19   21 1
    41   19   30 1
    42   21   22 1
    43   21   66 1
    44   21   67 1
    45   22   27 ar
    46   22   23 ar
    47   23   24 ar
    48   23   68 1
    49   24   25 ar
    50   24   29 1
    51   25   26 ar
    52   25   69 1
    53   26   27 ar
    54   26   28 1
    55   27   70 1
    56   30   31 1
    57   30   32 1
    58   30   46 1
    59   32   33 1
    60   32   39 1
    61   32   34 1
    62   34   35 1
    63   34   71 1
    64   34   72 1
    65   35   36 1
    66   35   37 1
    67   35   40 1
    68   37   38 1
    69   37   73 1
    70   37   74 1
    71   38   39 1
    72   38   75 1
    73   38   76 1
    74   39   77 1
    75   39   93 1
    76   40   45 1
    77   40   41 1
    78   40   78 1
    79   41   42 1
    80   41   79 1
    81   41   80 1
    82   42   43 1
    83   42   81 1
    84   42   82 1
    85   43   44 1
    86   43   83 1
    87   43   84 1
    88   44   45 1
    89   44   85 1
    90   44   86 1
    91   45   87 1
    92   45   88 1
    93   46   89 1
    94   47   90 1
    95   47   91 1
    96   47   92 1
@<TRIPOS>MOLECULE
CHEMBL1077237
   93    96     0     0     0
SMALL
USER_CHARGES

@<TRIPOS>ATOM
      1 C1          0.0501    2.4420    0.9255 C.3       1 <0>        -0.1489
      2 C2          0.1301    0.9190    0.8033 C.3       1 <0>        -0.0620
      3 C3          0.9159    0.5490   -0.4563 C.3       1 <0>        -0.1499
      4 C4          0.8268    0.3537    2.0141 C.ar      1 <0>        -0.0649
      5 C5          2.1216    0.7383    2.3089 C.ar      1 <0>        -0.0786
      6 C6          2.7606    0.2199    3.4195 C.ar      1 <0>        -0.1101
      7 C7          2.1047   -0.6829    4.2358 C.ar      1 <0>        -0.0973
      8 C8          0.8100   -1.0667    3.9415 C.ar      1 <0>        -0.1647
      9 C9          0.1693   -0.5448    2.8330 C.ar      1 <0>        -0.0935
     10 C10         0.0953   -2.0511    4.8310 C.3       1 <0>         0.0471
     11 N1         -0.6214   -1.3252    5.8881 N.4       1 <0>        -0.5038
     12 C11        -1.3181   -2.2848    6.7551 C.3       1 <0>        -0.0483
     13 C12        -2.0646   -1.5288    7.8561 C.3       1 <0>         0.0779
     14 H1         -2.7911   -0.8532    7.4045 H         1 <0>         0.1398
     15 C13        -2.7902   -2.5282    8.7591 C.3       1 <0>         0.1260
     16 H2         -3.5018   -3.1032    8.1666 H         1 <0>         0.1100
     17 C14        -3.5367   -1.7722    9.8601 C.3       1 <0>        -0.0851
     18 C15        -4.3497   -2.7450   10.6749 C.ar      1 <0>        -0.0769
     19 C16        -5.6497   -3.0374   10.3070 C.ar      1 <0>        -0.1069
     20 C17        -6.3954   -3.9297   11.0545 C.ar      1 <0>        -0.1108
     21 C18        -5.8410   -4.5298   12.1695 C.ar      1 <0>        -0.1125
     22 C19        -4.5407   -4.2380   12.5369 C.ar      1 <0>        -0.1100
     23 C20        -3.7935   -3.3490   11.7870 C.ar      1 <0>        -0.1085
     24 N2         -1.8139   -3.4363    9.3660 N.am      1 <0>        -0.7434
     25 C21        -2.1959   -4.6637    9.7709 C.2       1 <0>         0.5215
     26 O1         -3.3481   -5.0165    9.6329 O.2       1 <0>        -0.4948
     27 C22        -1.1916   -5.5978   10.3953 C.3       1 <0>        -0.1040
     28 H3         -0.7799   -5.1401   11.2948 H         1 <0>         0.0971
     29 C23        -0.0624   -5.8718    9.3999 C.3       1 <0>        -0.1034
     30 C24         0.9573   -6.8201   10.0337 C.3       1 <0>        -0.1179
     31 C25         0.2699   -8.1370   10.4004 C.3       1 <0>        -0.1148
     32 C26        -0.8592   -7.8630   11.3958 C.3       1 <0>        -0.0973
     33 H4         -0.4475   -7.4052   12.2953 H         1 <0>         0.0991
     34 C27        -1.8789   -6.9146   10.7619 C.3       1 <0>        -0.0900
     35 C28        -1.5466   -9.1798   11.7624 C.3       1 <0>         0.1780
     36 C29        -2.6956   -8.9021   12.7338 C.3       1 <0>        -0.1676
     37 C30        -2.0974   -9.8376   10.4956 C.3       1 <0>        -0.1622
     38 N3         -0.5771  -10.0767   12.3964 N.am      1 <0>        -0.5926
     39 C31        -0.3228  -11.3648   11.7637 C.3       1 <0>         0.1068
     40 C32         1.0032  -11.9488   12.2526 C.3       1 <0>        -0.1368
     41 C33         1.0171  -11.9195   13.7857 C.3       1 <0>        -0.1256
     42 C34         1.0646  -10.4589   14.2412 C.3       1 <0>        -0.1369
     43 C35         0.0213   -9.6611   13.5133 C.2       1 <0>         0.5191
     44 O2         -0.2974   -8.5829   13.9682 O.2       1 <0>        -0.5481
     45 O3         -1.1317   -0.7750    8.6329 O.3       1 <0>        -0.5437
     46 H5          1.0568    2.8546    0.9911 H         1 <0>         0.0597
     47 H6         -0.4539    2.8508    0.0497 H         1 <0>         0.0669
     48 H7         -0.5098    2.7055    1.8229 H         1 <0>         0.0560
     49 H8         -0.8767    0.5063    0.7377 H         1 <0>         0.0815
     50 H9          1.9226    0.9617   -0.3908 H         1 <0>         0.0597
     51 H10         0.9729   -0.5360   -0.5434 H         1 <0>         0.0578
     52 H11         0.4120    0.9579   -1.3321 H         1 <0>         0.0669
     53 H12         2.6339    1.4435    1.6713 H         1 <0>         0.1345
     54 H13         3.7723    0.5198    3.6494 H         1 <0>         0.1362
     55 H14         2.6043   -1.0886    5.1031 H         1 <0>         0.1301
     56 H15        -0.8438   -0.8418    2.6052 H         1 <0>         0.1301
     57 H16        -0.6163   -2.6261    4.2384 H         1 <0>         0.1375
     58 H17         0.8217   -2.7267    5.2826 H         1 <0>         0.1369
     59 H18         0.0373   -0.7930    6.4366 H         1 <0>         0.4310
     60 H19        -2.0297   -2.8598    6.1626 H         1 <0>         0.1464
     61 H20        -0.5917   -2.9604    7.2067 H         1 <0>         0.1354
     62 H21        -2.8180   -1.2686   10.5065 H         1 <0>         0.0832
     63 H22        -4.1992   -1.0337    9.4087 H         1 <0>         0.0833
     64 H23        -6.0828   -2.5686    9.4359 H         1 <0>         0.1129
     65 H24        -7.4113   -4.1577   10.7674 H         1 <0>         0.1184
     66 H25        -6.4238   -5.2264   12.7539 H         1 <0>         0.1187
     67 H26        -4.1076   -4.7066   13.4083 H         1 <0>         0.1173
     68 H27        -2.7764   -3.1239   12.0719 H         1 <0>         0.1078
     69 H28        -0.8924   -3.1542    9.4765 H         1 <0>         0.3907
     70 H29        -0.4741   -6.3295    8.5004 H         1 <0>         0.0664
     71 H30         0.4273   -4.9337    9.1386 H         1 <0>         0.0553
     72 H31         1.7617   -7.0153    9.3245 H         1 <0>         0.0650
     73 H32         1.3690   -6.3624   10.9332 H         1 <0>         0.0652
     74 H33        -0.1418   -8.5947    9.5009 H         1 <0>         0.0629
     75 H34         0.9964   -8.8126   10.8519 H         1 <0>         0.0621
     76 H35        -2.6833   -6.7194   11.4711 H         1 <0>         0.0767
     77 H36        -2.2906   -7.3723    9.8624 H         1 <0>         0.0701
     78 H37        -3.4169   -8.2348   12.2621 H         1 <0>         0.0653
     79 H38        -3.1853   -9.8402   12.9950 H         1 <0>         0.0521
     80 H39        -2.3032   -8.4335   13.6363 H         1 <0>         0.0835
     81 H40        -1.2788  -10.0354    9.8036 H         1 <0>         0.0656
     82 H41        -2.5871  -10.7757   10.7568 H         1 <0>         0.0634
     83 H42        -2.8187   -9.1703   10.0239 H         1 <0>         0.0739
     84 H43        -1.1318  -12.0528   12.0092 H         1 <0>         0.0659
     85 H44        -0.2816  -11.2332   10.6824 H         1 <0>         0.0798
     86 H45         1.0998  -12.9776   11.9056 H         1 <0>         0.0858
     87 H46         1.8298  -11.3515   11.8679 H         1 <0>         0.0712
     88 H47         0.1144  -12.3945   14.1700 H         1 <0>         0.0714
     89 H48         1.8960  -12.4478   14.1549 H         1 <0>         0.0783
     90 H49         0.8795  -10.4081   15.3142 H         1 <0>         0.1003
     91 H50         2.0491  -10.0441   14.0249 H         1 <0>         0.0972
     92 H51        -0.4544   -1.3130    9.0651 H         1 <0>         0.3843
     93 H52        -1.2939   -0.6998    5.4700 H         1 <0>         0.4290
@<TRIPOS>BOND
     1    1    2 1
     2    1   46 1
     3    1   47 1
     4    1   48 1
     5    2    3 1
     6    2    4 1
     7    2   49 1
     8    3   50 1
     9    3   51 1
    10    3   52 1
    11    4    9 ar
    12    4    5 ar
    13    5    6 ar
    14    5   53 1
    15    6    7 ar
    16    6   54 1
    17    7    8 ar
    18    7   55 1
    19    8    9 ar
    20    8   10 1
    21    9   56 1
    22   10   11 1
    23   10   57 1
    24   10   58 1
    25   11   12 1
    26   11   59 1
    27   11   93 1
    28   12   13 1
    29   12   60 1
    30   12   61 1
    31   13   14 1
    32   13   15 1
    33   13   45 1
    34   15   16 1
    35   15   17 1
    36   15   24 1
    37   17   18 1
    38   17   62 1
    39   17   63 1
    40   18   23 ar
    41   18   19 ar
    42   19   20 ar
    43   19   64 1
    44   20   21 ar
    45   20   65 1
    46   21   22 ar
    47   21   66 1
    48   22   23 ar
    49   22   67 1
    50   23   68 1
    51   24   25 am
    52   24   69 1
    53   25   26 2
    54   25   27 1
    55   27   28 1
    56   27   34 1
    57   27   29 1
    58   29   30 1
    59   29   70 1
    60   29   71 1
    61   30   31 1
    62   30   72 1
    63   30   73 1
    64   31   32 1
    65   31   74 1
    66   31   75 1
    67   32   33 1
    68   32   34 1
    69   32   35 1
    70   34   76 1
    71   34   77 1
    72   35   36 1
    73   35   37 1
    74   35   38 1
    75   36   78 1
    76   36   79 1
    77   36   80 1
    78   37   81 1
    79   37   82 1
    80   37   83 1
    81   38   43 am
    82   38   39 1
    83   39   40 1
    84   39   84 1
    85   39   85 1
    86   40   41 1
    87   40   86 1
    88   40   87 1
    89   41   42 1
    90   41   88 1
    91   41   89 1
    92   42   43 1
    93   42   90 1
    94   42   91 1
    95   43   44 2
    96   45   92 1
@<TRIPOS>MOLECULE
CHEMBL1077236
   90    93     0     0     0
SMALL
USER_CHARGES

@<TRIPOS>ATOM
      1 C1         -0.1207    1.7851   -0.2465 C.3       1 <0>        -0.1489
      2 C2         -0.0648    0.2561   -0.2457 C.3       1 <0>        -0.0620
      3 C3          0.7115   -0.2252    0.9818 C.3       1 <0>        -0.1500
      4 C4         -1.4657   -0.2978   -0.2030 C.ar      1 <0>        -0.0649
      5 C5         -2.2992    0.0112    0.8559 C.ar      1 <0>        -0.0786
      6 C6         -3.5840   -0.4967    0.8951 C.ar      1 <0>        -0.1100
      7 C7         -4.0359   -1.3134   -0.1249 C.ar      1 <0>        -0.0972
      8 C8         -3.2029   -1.6216   -1.1839 C.ar      1 <0>        -0.1648
      9 C9         -1.9191   -1.1100   -1.2252 C.ar      1 <0>        -0.0935
     10 C10        -3.6953   -2.5122   -2.2954 C.3       1 <0>         0.0471
     11 N1         -4.3164   -1.6904   -3.3427 N.4       1 <0>        -0.5038
     12 C11        -4.7964   -2.5585   -4.4261 C.3       1 <0>        -0.0483
     13 C12        -5.4433   -1.7026   -5.5169 C.3       1 <0>         0.0778
     14 H1         -4.7085   -1.0011   -5.9119 H         1 <0>         0.1400
     15 C13        -5.9432   -2.6068   -6.6453 C.3       1 <0>         0.1260
     16 H2         -5.1036   -3.1592   -7.0672 H         1 <0>         0.1102
     17 C14        -6.5901   -1.7508   -7.7361 C.3       1 <0>        -0.0852
     18 C15        -6.9719   -2.6266   -8.9015 C.ar      1 <0>        -0.0768
     19 C16        -6.0695   -2.8469   -9.9253 C.ar      1 <0>        -0.1067
     20 C17        -6.4197   -3.6503  -10.9944 C.ar      1 <0>        -0.1106
     21 C18        -7.6721   -4.2337  -11.0395 C.ar      1 <0>        -0.1124
     22 C19        -8.5741   -4.0141  -10.0153 C.ar      1 <0>        -0.1106
     23 C20        -8.2224   -3.2142   -8.9441 C.ar      1 <0>        -0.1088
     24 N2         -6.9308   -3.5497   -6.1145 N.am      1 <0>        -0.7431
     25 C21        -7.1391   -4.7278   -6.7349 C.2       1 <0>         0.5217
     26 O1         -6.5090   -5.0075   -7.7327 O.2       1 <0>        -0.4946
     27 C22        -8.1550   -5.6978   -6.1888 C.3       1 <0>        -0.1047
     28 H3         -9.1383   -5.2274   -6.1799 H         1 <0>         0.0972
     29 C23        -7.7665   -6.0944   -4.7631 C.3       1 <0>        -0.1039
     30 C24        -8.7979   -7.0791   -4.2087 C.3       1 <0>        -0.1186
     31 C25        -8.8378   -8.3274   -5.0925 C.3       1 <0>        -0.1152
     32 C26        -9.2263   -7.9308   -6.5182 C.3       1 <0>        -0.0930
     33 H4        -10.2096   -7.4604   -6.5093 H         1 <0>         0.0842
     34 C27        -8.1949   -6.9461   -7.0726 C.3       1 <0>        -0.0914
     35 C28        -9.2661   -9.1791   -7.4020 C.3       1 <0>         0.1913
     36 C29        -9.6082   -8.7766   -8.8379 C.3       1 <0>        -0.1669
     37 C30        -7.8991   -9.8657   -7.3767 C.3       1 <0>        -0.1597
     38 N3        -10.2857  -10.1022   -6.8975 N.am      1 <0>        -0.6105
     39 C31        -9.9996  -11.4345   -6.3523 C.3       1 <0>         0.1000
     40 C32       -11.2675  -11.8401   -5.5687 C.3       1 <0>        -0.1327
     41 C33       -12.3582  -11.0067   -6.2805 C.3       1 <0>        -0.1586
     42 C34       -11.6029   -9.8356   -6.8692 C.2       1 <0>         0.5184
     43 O2        -12.1120   -8.8069   -7.2610 O.2       1 <0>        -0.5290
     44 O3         -6.5440   -0.9783   -4.9638 O.3       1 <0>        -0.5437
     45 H5          0.8926    2.1856   -0.2774 H         1 <0>         0.0669
     46 H6         -0.6737    2.1280   -1.1209 H         1 <0>         0.0560
     47 H7         -0.6207    2.1308    0.6583 H         1 <0>         0.0598
     48 H8          0.4352   -0.0897   -1.1504 H         1 <0>         0.0815
     49 H9          0.2115    0.1205    1.8865 H         1 <0>         0.0597
     50 H10         0.7513   -1.3145    0.9823 H         1 <0>         0.0578
     51 H11         1.7248    0.1753    0.9509 H         1 <0>         0.0669
     52 H12        -1.9462    0.6492    1.6526 H         1 <0>         0.1346
     53 H13        -4.2349   -0.2559    1.7226 H         1 <0>         0.1362
     54 H14        -5.0396   -1.7109   -0.0940 H         1 <0>         0.1301
     55 H15        -1.2695   -1.3477   -2.0546 H         1 <0>         0.1301
     56 H16        -2.8557   -3.0647   -2.7173 H         1 <0>         0.1375
     57 H17        -4.4301   -3.2137   -1.9004 H         1 <0>         0.1369
     58 H18        -5.0936   -1.1790   -2.9521 H         1 <0>         0.4310
     59 H19        -3.9568   -3.1110   -4.8480 H         1 <0>         0.1464
     60 H20        -5.5312   -3.2601   -4.0312 H         1 <0>         0.1353
     61 H21        -7.4820   -1.2674   -7.3374 H         1 <0>         0.0833
     62 H22        -5.8830   -0.9910   -8.0689 H         1 <0>         0.0836
     63 H23        -5.0910   -2.3911   -9.8901 H         1 <0>         0.1131
     64 H24        -5.7149   -3.8218  -11.7945 H         1 <0>         0.1186
     65 H25        -7.9459   -4.8607  -11.8751 H         1 <0>         0.1188
     66 H26        -9.5527   -4.4696  -10.0507 H         1 <0>         0.1171
     67 H27        -8.9258   -3.0457   -8.1421 H         1 <0>         0.1078
     68 H28        -7.4348   -3.3260   -5.3164 H         1 <0>         0.3909
     69 H29        -6.7833   -6.5648   -4.7721 H         1 <0>         0.0671
     70 H30        -7.7381   -5.2051   -4.1335 H         1 <0>         0.0562
     71 H31        -8.5211   -7.3617   -3.1930 H         1 <0>         0.0664
     72 H32        -9.7812   -6.6088   -4.1998 H         1 <0>         0.0653
     73 H33        -7.8545   -8.7978   -5.1014 H         1 <0>         0.0654
     74 H34        -9.5726   -9.0290   -4.6975 H         1 <0>         0.0648
     75 H35        -8.4717   -6.6635   -8.0883 H         1 <0>         0.0777
     76 H36        -7.2116   -7.4164   -7.0815 H         1 <0>         0.0731
     77 H37        -8.8496   -8.0898   -9.2132 H         1 <0>         0.0704
     78 H38        -9.6366   -9.6659   -9.4675 H         1 <0>         0.0571
     79 H39       -10.5821   -8.2874   -8.8559 H         1 <0>         0.0749
     80 H40        -7.6554  -10.1524   -6.3537 H         1 <0>         0.0653
     81 H41        -7.9275  -10.7550   -8.0063 H         1 <0>         0.0637
     82 H42        -7.1405   -9.1788   -7.7520 H         1 <0>         0.0750
     83 H43        -9.8139  -12.1411   -7.1612 H         1 <0>         0.0721
     84 H44        -9.1402  -11.3916   -5.6832 H         1 <0>         0.0784
     85 H45       -11.4639  -12.9075   -5.6701 H         1 <0>         0.0920
     86 H46       -11.1842  -11.5583   -4.5190 H         1 <0>         0.0811
     87 H47       -12.8338  -11.5929   -7.0668 H         1 <0>         0.1049
     88 H48       -13.1000  -10.6566   -5.5627 H         1 <0>         0.1008
     89 H49        -7.2381   -1.5403   -4.5929 H         1 <0>         0.3842
     90 H50        -3.6362   -1.0410   -3.7083 H         1 <0>         0.4290
@<TRIPOS>BOND
     1    1    2 1
     2    1   45 1
     3    1   46 1
     4    1   47 1
     5    2    3 1
     6    2    4 1
     7    2   48 1
     8    3   49 1
     9    3   50 1
    10    3   51 1
    11    4    9 ar
    12    4    5 ar
    13    5    6 ar
    14    5   52 1
    15    6    7 ar
    16    6   53 1
    17    7    8 ar
    18    7   54 1
    19    8    9 ar
    20    8   10 1
    21    9   55 1
    22   10   11 1
    23   10   56 1
    24   10   57 1
    25   11   12 1
    26   11   58 1
    27   11   90 1
    28   12   13 1
    29   12   59 1
    30   12   60 1
    31   13   14 1
    32   13   15 1
    33   13   44 1
    34   15   16 1
    35   15   17 1
    36   15   24 1
    37   17   18 1
    38   17   61 1
    39   17   62 1
    40   18   23 ar
    41   18   19 ar
    42   19   20 ar
    43   19   63 1
    44   20   21 ar
    45   20   64 1
    46   21   22 ar
    47   21   65 1
    48   22   23 ar
    49   22   66 1
    50   23   67 1
    51   24   25 am
    52   24   68 1
    53   25   26 2
    54   25   27 1
    55   27   28 1
    56   27   34 1
    57   27   29 1
    58   29   30 1
    59   29   69 1
    60   29   70 1
    61   30   31 1
    62   30   71 1
    63   30   72 1
    64   31   32 1
    65   31   73 1
    66   31   74 1
    67   32   33 1
    68   32   34 1
    69   32   35 1
    70   34   75 1
    71   34   76 1
    72   35   36 1
    73   35   37 1
    74   35   38 1
    75   36   77 1
    76   36   78 1
    77   36   79 1
    78   37   80 1
    79   37   81 1
    80   37   82 1
    81   38   42 am
    82   38   39 1
    83   39   40 1
    84   39   83 1
    85   39   84 1
    86   40   41 1
    87   40   85 1
    88   40   86 1
    89   41   42 1
    90   41   87 1
    91   41   88 1
    92   42   43 2
    93   44   89 1
@<TRIPOS>MOLECULE
CHEMBL210414
   87    89     0     0     0
SMALL
USER_CHARGES

@<TRIPOS>ATOM
      1 C1         -0.0187    1.5258    0.0104 C.3       1 <0>        -0.1258
      2 C2          0.0021   -0.0041    0.0020 C.3       1 <0>        -0.1514
      3 H1         -0.8825   -0.4839   -0.4168 H         1 <0>         0.1020
      4 C3          1.3509   -0.6911   -0.2209 C.3       1 <0>        -0.1757
      5 C4          0.7031   -0.7075    1.1659 C.3       1 <0>        -0.1542
      6 C5          0.1092   -2.0309    1.6525 C.3       1 <0>        -0.0806
      7 C6          0.8714   -2.5073    2.8906 C.3       1 <0>        -0.0834
      8 C7          0.2864   -3.8108    3.3699 C.ar      1 <0>        -0.0480
      9 C8         -0.7472   -3.8058    4.2846 C.ar      1 <0>        -0.0705
     10 C9         -1.2908   -5.0116    4.7302 C.ar      1 <0>        -0.1027
     11 C10        -0.7864   -6.2193    4.2477 C.ar      1 <0>        -0.1397
     12 C11         0.2516   -6.2137    3.3287 C.ar      1 <0>         0.1732
     13 C12         0.7829   -5.0071    2.8876 C.ar      1 <0>        -0.1105
     14 N1          0.7609   -7.4205    2.8426 N.pl3     1 <0>        -0.9411
     15 C13         1.4246   -7.4627    1.5373 C.3       1 <0>         0.0765
     16 S1          0.6142   -8.8032    3.7420 S.o2      1 <0>         2.5979
     17 O1          1.6936   -9.6259    3.3209 O.2       1 <0>        -0.9315
     18 O2          0.5281   -8.3534    5.0872 O.2       1 <0>        -0.9479
     19 C14        -0.9648   -9.5308    3.2242 C.3       1 <0>        -0.6787
     20 C15        -2.3974   -5.0089    5.7108 C.2       1 <0>         0.5691
     21 O3         -2.8352   -3.9554    6.1303 O.2       1 <0>        -0.4833
     22 N2         -2.9208   -6.1746    6.1396 N.am      1 <0>        -0.7527
     23 C16        -4.0172   -6.1719    7.1112 C.3       1 <0>         0.1271
     24 H2         -3.8846   -5.3429    7.8063 H         1 <0>         0.1215
     25 C17        -5.3496   -6.0130    6.3761 C.3       1 <0>        -0.0860
     26 C18        -5.4001   -4.6601    5.7144 C.ar      1 <0>        -0.0845
     27 C19        -5.9078   -3.5732    6.4013 C.ar      1 <0>        -0.1028
     28 C20        -5.9540   -2.3321    5.7942 C.ar      1 <0>        -0.1101
     29 C21        -5.4922   -2.1778    4.5005 C.ar      1 <0>        -0.1081
     30 C22        -4.9836   -3.2645    3.8139 C.ar      1 <0>        -0.1100
     31 C23        -4.9334   -4.5047    4.4225 C.ar      1 <0>        -0.1078
     32 C24        -4.0159   -7.4917    7.8852 C.3       1 <0>        -0.0232
     33 N3         -2.6952   -7.7016    8.4931 N.4       1 <0>        -0.4976
     34 C25        -2.6940   -8.9687    9.2363 C.3       1 <0>         0.0037
     35 H3         -3.5098   -8.9667    9.9592 H         1 <0>         0.1692
     36 C26        -2.8801  -10.1324    8.2605 C.3       1 <0>        -0.1864
     37 C27        -1.3816   -9.1252    9.9603 C.2       1 <0>         0.4982
     38 O4         -0.5310   -8.2658    9.8664 O.2       1 <0>        -0.5179
     39 N4         -1.1531  -10.2202   10.7121 N.am      1 <0>        -0.7000
     40 C28         0.1227  -10.3723   11.4159 C.3       1 <0>         0.1163
     41 C29         0.1240  -11.6921   12.1900 C.3       1 <0>        -0.1084
     42 C30         1.4996  -11.9107   12.8231 C.3       1 <0>        -0.1503
     43 C31        -0.9403  -11.6404   13.2879 C.3       1 <0>        -0.1532
     44 H4          1.0039    1.9031    0.0027 H         1 <0>         0.0567
     45 H5         -0.5459    1.8868   -0.8726 H         1 <0>         0.0613
     46 H6         -0.5289    1.8773    0.9072 H         1 <0>         0.0597
     47 H7          1.3536   -1.6231   -0.7861 H         1 <0>         0.0926
     48 H8          2.2234   -0.0532   -0.3616 H         1 <0>         0.0945
     49 H9          1.1496   -0.0804    1.9376 H         1 <0>         0.1057
     50 H10        -0.9411   -1.8865    1.9056 H         1 <0>         0.0684
     51 H11         0.1935   -2.7787    0.8639 H         1 <0>         0.0652
     52 H12         1.9217   -2.6517    2.6375 H         1 <0>         0.0812
     53 H13         0.7872   -1.7595    3.6792 H         1 <0>         0.0815
     54 H14        -1.1350   -2.8687    4.6559 H         1 <0>         0.1417
     55 H15        -1.2028   -7.1555    4.5891 H         1 <0>         0.1174
     56 H16         1.5887   -5.0046    2.1686 H         1 <0>         0.1387
     57 H17         2.4906   -7.2748    1.6655 H         1 <0>         0.0764
     58 H18         1.2803   -8.4452    1.0879 H         1 <0>         0.0857
     59 H19         0.9968   -6.6994    0.8873 H         1 <0>         0.0870
     60 H20        -0.9328   -9.7460    2.1561 H         1 <0>         0.1384
     61 H21        -1.1374  -10.4548    3.7760 H         1 <0>         0.1357
     62 H22        -1.7730   -8.8288    3.4293 H         1 <0>         0.1268
     63 H23        -2.5714   -7.0153    5.8048 H         1 <0>         0.3962
     64 H24        -5.4419   -6.7916    5.6189 H         1 <0>         0.0850
     65 H25        -6.1701   -6.0999    7.0884 H         1 <0>         0.0940
     66 H26        -6.2686   -3.6937    7.4120 H         1 <0>         0.1160
     67 H27        -6.3514   -1.4831    6.3306 H         1 <0>         0.1209
     68 H28        -5.5289   -1.2083    4.0260 H         1 <0>         0.1207
     69 H29        -4.6230   -3.1440    2.8031 H         1 <0>         0.1177
     70 H30        -4.5326   -5.3529    3.8874 H         1 <0>         0.1091
     71 H31        -4.7742   -7.4549    8.6674 H         1 <0>         0.1558
     72 H32        -4.2368   -8.3130    7.2035 H         1 <0>         0.1432
     73 H33        -1.9933   -7.7357    7.7690 H         1 <0>         0.4327
     74 H34        -2.0643  -10.1344    7.5376 H         1 <0>         0.0915
     75 H35        -2.8792  -11.0726    8.8120 H         1 <0>         0.1135
     76 H36        -3.8293  -10.0192    7.7368 H         1 <0>         0.0990
     77 H37        -1.8334  -10.9076   10.7872 H         1 <0>         0.4088
     78 H38         0.9385  -10.3743   10.6930 H         1 <0>         0.0813
     79 H39         0.2553   -9.5433   12.1111 H         1 <0>         0.0812
     80 H40        -0.0969  -12.5134   11.5082 H         1 <0>         0.0802
     81 H41         1.7205  -11.0894   13.5048 H         1 <0>         0.0619
     82 H42         1.5005  -12.8509   13.3745 H         1 <0>         0.0678
     83 H43         2.2578  -11.9475   12.0409 H         1 <0>         0.0616
     84 H44        -1.9204  -11.4846   12.8369 H         1 <0>         0.0501
     85 H45        -0.9394  -12.5806   13.8393 H         1 <0>         0.0662
     86 H46        -0.7195  -10.8191   13.9697 H         1 <0>         0.0613
     87 H47        -2.4907   -6.9413    9.1242 H         1 <0>         0.4389
@<TRIPOS>BOND
     1    1    2 1
     2    1   44 1
     3    1   45 1
     4    1   46 1
     5    2    3 1
     6    2    5 1
     7    2    4 1
     8    4    5 1
     9    4   47 1
    10    4   48 1
    11    5    6 1
    12    5   49 1
    13    6    7 1
    14    6   50 1
    15    6   51 1
    16    7    8 1
    17    7   52 1
    18    7   53 1
    19    8   13 ar
    20    8    9 ar
    21    9   10 ar
    22    9   54 1
    23   10   11 ar
    24   10   20 1
    25   11   12 ar
    26   11   55 1
    27   12   13 ar
    28   12   14 1
    29   13   56 1
    30   14   15 1
    31   14   16 1
    32   15   57 1
    33   15   58 1
    34   15   59 1
    35   16   17 2
    36   16   18 2
    37   16   19 1
    38   19   60 1
    39   19   61 1
    40   19   62 1
    41   20   21 2
    42   20   22 am
    43   22   23 1
    44   22   63 1
    45   23   24 1
    46   23   25 1
    47   23   32 1
    48   25   26 1
    49   25   64 1
    50   25   65 1
    51   26   31 ar
    52   26   27 ar
    53   27   28 ar
    54   27   66 1
    55   28   29 ar
    56   28   67 1
    57   29   30 ar
    58   29   68 1
    59   30   31 ar
    60   30   69 1
    61   31   70 1
    62   32   33 1
    63   32   71 1
    64   32   72 1
    65   33   34 1
    66   33   73 1
    67   33   87 1
    68   34   35 1
    69   34   36 1
    70   34   37 1
    71   36   74 1
    72   36   75 1
    73   36   76 1
    74   37   38 2
    75   37   39 am
    76   39   40 1
    77   39   77 1
    78   40   41 1
    79   40   78 1
    80   40   79 1
    81   41   42 1
    82   41   43 1
    83   41   80 1
    84   42   81 1
    85   42   82 1
    86   42   83 1
    87   43   84 1
    88   43   85 1
    89   43   86 1
@<TRIPOS>MOLECULE
CHEMBL210414__1
   86    88     0     0     0
SMALL
USER_CHARGES

@<TRIPOS>ATOM
      1 C1         -0.0187    1.5258    0.0104 C.3       1 <0>        -0.1244
      2 C2          0.0021   -0.0041    0.0020 C.3       1 <0>        -0.1537
      3 H1         -0.8825   -0.4839   -0.4168 H         1 <0>         0.1019
      4 C3          1.3509   -0.6911   -0.2209 C.3       1 <0>        -0.1768
      5 C4          0.7031   -0.7075    1.1659 C.3       1 <0>        -0.1505
      6 C5          0.1092   -2.0309    1.6525 C.3       1 <0>        -0.0815
      7 C6          0.8714   -2.5073    2.8906 C.3       1 <0>        -0.0791
      8 C7          0.2864   -3.8108    3.3699 C.ar      1 <0>        -0.0559
      9 C8         -0.7472   -3.8058    4.2846 C.ar      1 <0>        -0.0747
     10 C9         -1.2908   -5.0116    4.7302 C.ar      1 <0>        -0.0891
     11 C10        -0.7864   -6.2193    4.2477 C.ar      1 <0>        -0.1349
     12 C11         0.2516   -6.2137    3.3287 C.ar      1 <0>         0.1681
     13 C12         0.7829   -5.0071    2.8876 C.ar      1 <0>        -0.1190
     14 N1          0.7609   -7.4205    2.8426 N.pl3     1 <0>        -0.9417
     15 C13         1.4246   -7.4627    1.5373 C.3       1 <0>         0.0804
     16 S1          0.6142   -8.8032    3.7420 S.o2      1 <0>         2.5950
     17 O1          1.6936   -9.6259    3.3209 O.2       1 <0>        -0.9401
     18 O2          0.5281   -8.3534    5.0872 O.2       1 <0>        -0.9341
     19 C14        -0.9648   -9.5308    3.2242 C.3       1 <0>        -0.6770
     20 C15        -2.3974   -5.0089    5.7108 C.2       1 <0>         0.5633
     21 O3         -2.8352   -3.9554    6.1303 O.2       1 <0>        -0.5032
     22 N2         -2.9208   -6.1746    6.1396 N.am      1 <0>        -0.7239
     23 C16        -4.0172   -6.1719    7.1112 C.3       1 <0>         0.1551
     24 H2         -3.8846   -5.3429    7.8063 H         1 <0>         0.1045
     25 C17        -5.3496   -6.0130    6.3761 C.3       1 <0>        -0.0934
     26 C18        -5.4001   -4.6601    5.7144 C.ar      1 <0>        -0.0646
     27 C19        -5.9078   -3.5732    6.4013 C.ar      1 <0>        -0.1047
     28 C20        -5.9540   -2.3321    5.7942 C.ar      1 <0>        -0.1123
     29 C21        -5.4922   -2.1778    4.5005 C.ar      1 <0>        -0.1199
     30 C22        -4.9836   -3.2645    3.8139 C.ar      1 <0>        -0.1122
     31 C23        -4.9334   -4.5047    4.4225 C.ar      1 <0>        -0.1097
     32 C24        -4.0159   -7.4917    7.8852 C.3       1 <0>         0.0511
     33 N3         -2.6952   -7.7016    8.4931 N.3       1 <0>        -0.6641
     34 C25        -2.6566   -8.9623    9.2462 C.3       1 <0>         0.0693
     35 H3         -3.6273   -9.1384    9.7098 H         1 <0>         0.1053
     36 C26        -2.3292  -10.1149    8.2948 C.3       1 <0>        -0.1858
     37 C27        -1.5976   -8.8768   10.3149 C.2       1 <0>         0.5139
     38 O4         -0.9397   -7.8653   10.4372 O.2       1 <0>        -0.5114
     39 N4         -1.3815   -9.9244   11.1348 N.am      1 <0>        -0.7346
     40 C28        -0.3520   -9.8413   12.1738 C.3       1 <0>         0.1237
     41 C29        -0.3118  -11.1543   12.9581 C.3       1 <0>        -0.1079
     42 C30         0.1371  -12.2874   12.0332 C.3       1 <0>        -0.1495
     43 C31         0.6744  -11.0240   14.1206 C.3       1 <0>        -0.1467
     44 H4          1.0039    1.9031    0.0027 H         1 <0>         0.0554
     45 H5         -0.5459    1.8868   -0.8726 H         1 <0>         0.0595
     46 H6         -0.5289    1.8773    0.9072 H         1 <0>         0.0598
     47 H7          1.3536   -1.6231   -0.7861 H         1 <0>         0.0921
     48 H8          2.2234   -0.0532   -0.3616 H         1 <0>         0.0926
     49 H9          1.1496   -0.0804    1.9376 H         1 <0>         0.1052
     50 H10        -0.9411   -1.8865    1.9056 H         1 <0>         0.0695
     51 H11         0.1935   -2.7787    0.8639 H         1 <0>         0.0644
     52 H12         1.9217   -2.6517    2.6375 H         1 <0>         0.0774
     53 H13         0.7872   -1.7595    3.6792 H         1 <0>         0.0794
     54 H14        -1.1350   -2.8687    4.6559 H         1 <0>         0.1395
     55 H15        -1.2028   -7.1555    4.5891 H         1 <0>         0.1208
     56 H16         1.5887   -5.0046    2.1686 H         1 <0>         0.1335
     57 H17         2.4906   -7.2748    1.6655 H         1 <0>         0.0725
     58 H18         1.2803   -8.4452    1.0879 H         1 <0>         0.0820
     59 H19         0.9968   -6.6994    0.8873 H         1 <0>         0.0841
     60 H20        -0.9328   -9.7460    2.1561 H         1 <0>         0.1337
     61 H21        -1.1374  -10.4548    3.7760 H         1 <0>         0.1357
     62 H22        -1.7730   -8.8288    3.4293 H         1 <0>         0.1293
     63 H23        -2.5714   -7.0153    5.8048 H         1 <0>         0.3916
     64 H24        -5.4419   -6.7916    5.6189 H         1 <0>         0.0729
     65 H25        -6.1701   -6.0999    7.0884 H         1 <0>         0.0845
     66 H26        -6.2686   -3.6937    7.4120 H         1 <0>         0.1149
     67 H27        -6.3514   -1.4831    6.3306 H         1 <0>         0.1159
     68 H28        -5.5289   -1.2083    4.0260 H         1 <0>         0.1147
     69 H29        -4.6230   -3.1440    2.8031 H         1 <0>         0.1126
     70 H30        -4.5326   -5.3529    3.8874 H         1 <0>         0.1069
     71 H31        -4.7742   -7.4549    8.6674 H         1 <0>         0.0921
     72 H32        -4.2368   -8.3130    7.2035 H         1 <0>         0.0384
     73 H33        -1.9674   -7.6752    7.7947 H         1 <0>         0.3530
     74 H34        -2.3006  -11.0503    8.8536 H         1 <0>         0.0692
     75 H35        -3.0952  -10.1767    7.5218 H         1 <0>         0.0672
     76 H36        -1.3586   -9.9388    7.8312 H         1 <0>         0.0686
     77 H37        -1.9077  -10.7334   11.0370 H         1 <0>         0.3970
     78 H38         0.6187   -9.6652   11.7101 H         1 <0>         0.0676
     79 H39        -0.5852   -9.0201   12.8516 H         1 <0>         0.0673
     80 H40        -1.3055  -11.3754   13.3477 H         1 <0>         0.0760
     81 H41         1.1308  -12.0663   11.6436 H         1 <0>         0.0582
     82 H42         0.1657  -13.2228   12.5920 H         1 <0>         0.0586
     83 H43        -0.5654  -12.3803   11.2050 H         1 <0>         0.0530
     84 H44         0.3546  -10.2167   14.7796 H         1 <0>         0.0586
     85 H45         0.7030  -11.9594   14.6795 H         1 <0>         0.0608
     86 H46         1.6681  -10.8029   13.7311 H         1 <0>         0.0589
@<TRIPOS>BOND
     1    1    2 1
     2    1   44 1
     3    1   45 1
     4    1   46 1
     5    2    3 1
     6    2    5 1
     7    2    4 1
     8    4    5 1
     9    4   47 1
    10    4   48 1
    11    5    6 1
    12    5   49 1
    13    6    7 1
    14    6   50 1
    15    6   51 1
    16    7    8 1
    17    7   52 1
    18    7   53 1
    19    8   13 ar
    20    8    9 ar
    21    9   10 ar
    22    9   54 1
    23   10   11 ar
    24   10   20 1
    25   11   12 ar
    26   11   55 1
    27   12   13 ar
    28   12   14 1
    29   13   56 1
    30   14   15 1
    31   14   16 1
    32   15   57 1
    33   15   58 1
    34   15   59 1
    35   16   17 2
    36   16   18 2
    37   16   19 1
    38   19   60 1
    39   19   61 1
    40   19   62 1
    41   20   21 2
    42   20   22 am
    43   22   23 1
    44   22   63 1
    45   23   24 1
    46   23   25 1
    47   23   32 1
    48   25   26 1
    49   25   64 1
    50   25   65 1
    51   26   31 ar
    52   26   27 ar
    53   27   28 ar
    54   27   66 1
    55   28   29 ar
    56   28   67 1
    57   29   30 ar
    58   29   68 1
    59   30   31 ar
    60   30   69 1
    61   31   70 1
    62   32   33 1
    63   32   71 1
    64   32   72 1
    65   33   34 1
    66   33   73 1
    67   34   35 1
    68   34   36 1
    69   34   37 1
    70   36   74 1
    71   36   75 1
    72   36   76 1
    73   37   38 2
    74   37   39 am
    75   39   40 1
    76   39   77 1
    77   40   41 1
    78   40   78 1
    79   40   79 1
    80   41   42 1
    81   41   43 1
    82   41   80 1
    83   42   81 1
    84   42   82 1
    85   42   83 1
    86   43   84 1
    87   43   85 1
    88   43   86 1
@<TRIPOS>MOLECULE
CHEMBL210414__2
   87    89     0     0     0
SMALL
USER_CHARGES

@<TRIPOS>ATOM
      1 C1         -0.0187    1.5258    0.0104 C.3       1 <0>        -0.1226
      2 C2          0.0021   -0.0041    0.0020 C.3       1 <0>        -0.1534
      3 H1         -0.8825   -0.4839   -0.4168 H         1 <0>         0.1039
      4 C3          1.3509   -0.6911   -0.2209 C.3       1 <0>        -0.1756
      5 C4          0.7031   -0.7075    1.1659 C.3       1 <0>        -0.1544
      6 C5          1.3298    0.1728    2.2491 C.3       1 <0>        -0.0792
      7 C6          1.8664   -0.7108    3.3770 C.3       1 <0>        -0.0841
      8 C7          2.4837    0.1562    4.4440 C.ar      1 <0>        -0.0476
      9 C8          3.8213    0.4886    4.3714 C.ar      1 <0>        -0.0706
     10 C9          4.3956    1.2914    5.3583 C.ar      1 <0>        -0.1027
     11 C10         3.6132    1.7559    6.4156 C.ar      1 <0>        -0.1398
     12 C11         2.2704    1.4169    6.4792 C.ar      1 <0>         0.1733
     13 C12         1.7070    0.6206    5.4886 C.ar      1 <0>        -0.1106
     14 N1          1.4825    1.8789    7.5363 N.pl3     1 <0>        -0.9411
     15 C13         0.0338    2.0147    7.3653 C.3       1 <0>         0.0764
     16 S1          2.1861    2.2732    8.9826 S.o2      1 <0>         2.5979
     17 O1          1.1576    2.0947    9.9468 O.2       1 <0>        -0.9316
     18 O2          3.3713    1.4911    9.0345 O.2       1 <0>        -0.9480
     19 C14         2.6042    4.0321    8.8335 C.3       1 <0>        -0.6787
     20 C15         5.8286    1.6481    5.2834 C.2       1 <0>         0.5691
     21 O3          6.5086    1.2419    4.3614 O.2       1 <0>        -0.4834
     22 N2          6.3808    2.4235    6.2375 N.am      1 <0>        -0.7527
     23 C16         7.8006    2.7768    6.1633 C.3       1 <0>         0.1270
     24 H2          8.3615    1.9414    5.7444 H         1 <0>         0.1214
     25 C17         7.9740    4.0067    5.2698 C.3       1 <0>        -0.0860
     26 C18         7.5746    3.6623    3.8581 C.ar      1 <0>        -0.0844
     27 C19         8.5157    3.1677    2.9746 C.ar      1 <0>        -0.1027
     28 C20         8.1494    2.8518    1.6797 C.ar      1 <0>        -0.1101
     29 C21         6.8417    3.0302    1.2683 C.ar      1 <0>        -0.1082
     30 C22         5.9004    3.5240    2.1521 C.ar      1 <0>        -0.1100
     31 C23         6.2659    3.8358    3.4482 C.ar      1 <0>        -0.1076
     32 C24         8.3225    3.0888    7.5673 C.3       1 <0>        -0.0232
     33 N3          8.0476    1.9517    8.4557 N.4       1 <0>        -0.4976
     34 C25         8.5487    2.2511    9.8037 C.3       1 <0>         0.0037
     35 H3          9.6051    2.5140    9.7485 H         1 <0>         0.1692
     36 C26         7.7614    3.4238   10.3917 C.3       1 <0>        -0.1864
     37 C27         8.3779    1.0398   10.6838 C.2       1 <0>         0.4982
     38 O4          7.8870    0.0268   10.2325 O.2       1 <0>        -0.5178
     39 N4          8.7706    1.0822   11.9724 N.am      1 <0>        -0.7000
     40 C28         8.6045   -0.0954   12.8279 C.3       1 <0>         0.1163
     41 C29         9.1265    0.2165   14.2319 C.3       1 <0>        -0.1084
     42 C30         8.8401   -0.9678   15.1572 C.3       1 <0>        -0.1503
     43 C31        10.6352    0.4637   14.1718 C.3       1 <0>        -0.1532
     44 H4          1.0039    1.9031    0.0027 H         1 <0>         0.0546
     45 H5         -0.5459    1.8868   -0.8726 H         1 <0>         0.0607
     46 H6         -0.5289    1.8773    0.9072 H         1 <0>         0.0584
     47 H7          1.3536   -1.6231   -0.7861 H         1 <0>         0.0937
     48 H8          2.2234   -0.0532   -0.3616 H         1 <0>         0.0938
     49 H9          0.2800   -1.6503    1.5125 H         1 <0>         0.1052
     50 H10         2.1482    0.7505    1.8194 H         1 <0>         0.0664
     51 H11         0.5755    0.8517    2.6470 H         1 <0>         0.0681
     52 H12         1.0481   -1.2885    3.8067 H         1 <0>         0.0803
     53 H13         2.6207   -1.3897    2.9792 H         1 <0>         0.0821
     54 H14         4.4238    0.1271    3.5513 H         1 <0>         0.1414
     55 H15         4.0521    2.3772    7.1823 H         1 <0>         0.1173
     56 H16         0.6599    0.3608    5.5376 H         1 <0>         0.1389
     57 H17        -0.4544    1.0824    7.6490 H         1 <0>         0.0764
     58 H18        -0.3324    2.8236    7.9975 H         1 <0>         0.0857
     59 H19        -0.1895    2.2390    6.3223 H         1 <0>         0.0872
     60 H20         1.6956    4.6078    8.6569 H         1 <0>         0.1384
     61 H21         3.0767    4.3726    9.7548 H         1 <0>         0.1356
     62 H22         3.2914    4.1727    7.9992 H         1 <0>         0.1268
     63 H23         5.8381    2.7476    6.9733 H         1 <0>         0.3963
     64 H24         7.3435    4.8157    5.6387 H         1 <0>         0.0850
     65 H25         9.0170    4.3229    5.2854 H         1 <0>         0.0940
     66 H26         9.5374    3.0283    3.2960 H         1 <0>         0.1160
     67 H27         8.8848    2.4660    0.9893 H         1 <0>         0.1209
     68 H28         6.5556    2.7840    0.2564 H         1 <0>         0.1205
     69 H29         4.8789    3.6636    1.8306 H         1 <0>         0.1174
     70 H30         5.5296    4.2181    4.1398 H         1 <0>         0.1092
     71 H31         9.3974    3.2648    7.5245 H         1 <0>         0.1558
     72 H32         7.8236    3.9786    7.9510 H         1 <0>         0.1432
     73 H33         7.0526    1.7887    8.4953 H         1 <0>         0.4327
     74 H34         6.7050    3.1609   10.4469 H         1 <0>         0.0915
     75 H35         8.1332    3.6461   11.3919 H         1 <0>         0.1135
     76 H36         7.8850    4.3000    9.7552 H         1 <0>         0.0990
     77 H37         9.1633    1.8924   12.3333 H         1 <0>         0.4088
     78 H38         7.5481   -0.3583   12.8831 H         1 <0>         0.0813
     79 H39         9.1655   -0.9308   12.4090 H         1 <0>         0.0812
     80 H40         8.6275    1.1064   14.6156 H         1 <0>         0.0802
     81 H41         9.3391   -1.8577   14.7735 H         1 <0>         0.0619
     82 H42         9.2120   -0.7456   16.1575 H         1 <0>         0.0678
     83 H43         7.7653   -1.1438   15.2000 H         1 <0>         0.0616
     84 H44        10.8392    1.3074   13.5126 H         1 <0>         0.0501
     85 H45        11.0071    0.6859   15.1721 H         1 <0>         0.0662
     86 H46        11.1342   -0.4262   13.7881 H         1 <0>         0.0613
     87 H47         8.5095    1.1279    8.1005 H         1 <0>         0.4389
@<TRIPOS>BOND
     1    1    2 1
     2    1   44 1
     3    1   45 1
     4    1   46 1
     5    2    3 1
     6    2    5 1
     7    2    4 1
     8    4    5 1
     9    4   47 1
    10    4   48 1
    11    5    6 1
    12    5   49 1
    13    6    7 1
    14    6   50 1
    15    6   51 1
    16    7    8 1
    17    7   52 1
    18    7   53 1
    19    8   13 ar
    20    8    9 ar
    21    9   10 ar
    22    9   54 1
    23   10   11 ar
    24   10   20 1
    25   11   12 ar
    26   11   55 1
    27   12   13 ar
    28   12   14 1
    29   13   56 1
    30   14   15 1
    31   14   16 1
    32   15   57 1
    33   15   58 1
    34   15   59 1
    35   16   17 2
    36   16   18 2
    37   16   19 1
    38   19   60 1
    39   19   61 1
    40   19   62 1
    41   20   21 2
    42   20   22 am
    43   22   23 1
    44   22   63 1
    45   23   24 1
    46   23   25 1
    47   23   32 1
    48   25   26 1
    49   25   64 1
    50   25   65 1
    51   26   31 ar
    52   26   27 ar
    53   27   28 ar
    54   27   66 1
    55   28   29 ar
    56   28   67 1
    57   29   30 ar
    58   29   68 1
    59   30   31 ar
    60   30   69 1
    61   31   70 1
    62   32   33 1
    63   32   71 1
    64   32   72 1
    65   33   34 1
    66   33   73 1
    67   33   87 1
    68   34   35 1
    69   34   36 1
    70   34   37 1
    71   36   74 1
    72   36   75 1
    73   36   76 1
    74   37   38 2
    75   37   39 am
    76   39   40 1
    77   39   77 1
    78   40   41 1
    79   40   78 1
    80   40   79 1
    81   41   42 1
    82   41   43 1
    83   41   80 1
    84   42   81 1
    85   42   82 1
    86   42   83 1
    87   43   84 1
    88   43   85 1
    89   43   86 1
@<TRIPOS>MOLECULE
CHEMBL210414__3
   86    88     0     0     0
SMALL
USER_CHARGES

@<TRIPOS>ATOM
      1 C1         -0.0187    1.5258    0.0104 C.3       1 <0>        -0.1225
      2 C2          0.0021   -0.0041    0.0020 C.3       1 <0>        -0.1551
      3 H1         -0.8825   -0.4839   -0.4168 H         1 <0>         0.1017
      4 C3          1.3509   -0.6911   -0.2209 C.3       1 <0>        -0.1763
      5 C4          0.7031   -0.7075    1.1659 C.3       1 <0>        -0.1514
      6 C5          1.3298    0.1728    2.2491 C.3       1 <0>        -0.0801
      7 C6          1.8664   -0.7108    3.3770 C.3       1 <0>        -0.0798
      8 C7          2.4837    0.1562    4.4440 C.ar      1 <0>        -0.0555
      9 C8          3.8213    0.4886    4.3714 C.ar      1 <0>        -0.0748
     10 C9          4.3956    1.2914    5.3583 C.ar      1 <0>        -0.0892
     11 C10         3.6132    1.7559    6.4156 C.ar      1 <0>        -0.1350
     12 C11         2.2704    1.4169    6.4792 C.ar      1 <0>         0.1682
     13 C12         1.7070    0.6206    5.4886 C.ar      1 <0>        -0.1190
     14 N1          1.4825    1.8789    7.5363 N.pl3     1 <0>        -0.9417
     15 C13         0.0338    2.0147    7.3653 C.3       1 <0>         0.0804
     16 S1          2.1861    2.2732    8.9826 S.o2      1 <0>         2.5950
     17 O1          1.1576    2.0947    9.9468 O.2       1 <0>        -0.9401
     18 O2          3.3713    1.4911    9.0345 O.2       1 <0>        -0.9341
     19 C14         2.6042    4.0321    8.8335 C.3       1 <0>        -0.6770
     20 C15         5.8286    1.6481    5.2834 C.2       1 <0>         0.5633
     21 O3          6.5086    1.2419    4.3614 O.2       1 <0>        -0.5033
     22 N2          6.3808    2.4235    6.2375 N.am      1 <0>        -0.7239
     23 C16         7.8006    2.7768    6.1633 C.3       1 <0>         0.1551
     24 H2          8.3615    1.9414    5.7444 H         1 <0>         0.1045
     25 C17         7.9740    4.0067    5.2698 C.3       1 <0>        -0.0935
     26 C18         7.5746    3.6623    3.8581 C.ar      1 <0>        -0.0645
     27 C19         8.5157    3.1677    2.9746 C.ar      1 <0>        -0.1046
     28 C20         8.1494    2.8518    1.6797 C.ar      1 <0>        -0.1123
     29 C21         6.8417    3.0302    1.2683 C.ar      1 <0>        -0.1200
     30 C22         5.9004    3.5240    2.1521 C.ar      1 <0>        -0.1123
     31 C23         6.2659    3.8358    3.4482 C.ar      1 <0>        -0.1095
     32 C24         8.3225    3.0888    7.5673 C.3       1 <0>         0.0511
     33 N3          8.0476    1.9517    8.4557 N.3       1 <0>        -0.6641
     34 C25         8.5361    2.2160    9.8157 C.3       1 <0>         0.0693
     35 H3          9.4543    2.8012    9.7646 H         1 <0>         0.1053
     36 C26         7.4763    2.9970   10.5954 C.3       1 <0>        -0.1859
     37 C27         8.8115    0.9090   10.5135 C.2       1 <0>         0.5139
     38 O4          8.6197   -0.1395    9.9348 O.2       1 <0>        -0.5114
     39 N4          9.2709    0.9052   11.7805 N.am      1 <0>        -0.7345
     40 C28         9.5386   -0.3654   12.4588 C.3       1 <0>         0.1236
     41 C29        10.0474   -0.0900   13.8752 C.3       1 <0>        -0.1080
     42 C30         8.9415    0.5803   14.6930 C.3       1 <0>        -0.1495
     43 C31        10.4447   -1.4096   14.5399 C.3       1 <0>        -0.1467
     44 H4          1.0039    1.9031    0.0027 H         1 <0>         0.0560
     45 H5         -0.5459    1.8868   -0.8726 H         1 <0>         0.0585
     46 H6         -0.5289    1.8773    0.9072 H         1 <0>         0.0586
     47 H7          1.3536   -1.6231   -0.7861 H         1 <0>         0.0921
     48 H8          2.2234   -0.0532   -0.3616 H         1 <0>         0.0946
     49 H9          0.2800   -1.6503    1.5125 H         1 <0>         0.1041
     50 H10         2.1482    0.7505    1.8194 H         1 <0>         0.0672
     51 H11         0.5755    0.8517    2.6470 H         1 <0>         0.0673
     52 H12         1.0481   -1.2885    3.8067 H         1 <0>         0.0765
     53 H13         2.6207   -1.3897    2.9792 H         1 <0>         0.0799
     54 H14         4.4238    0.1271    3.5513 H         1 <0>         0.1392
     55 H15         4.0521    2.3772    7.1823 H         1 <0>         0.1208
     56 H16         0.6599    0.3608    5.5376 H         1 <0>         0.1336
     57 H17        -0.4544    1.0824    7.6490 H         1 <0>         0.0725
     58 H18        -0.3324    2.8236    7.9975 H         1 <0>         0.0820
     59 H19        -0.1895    2.2390    6.3223 H         1 <0>         0.0844
     60 H20         1.6956    4.6078    8.6569 H         1 <0>         0.1337
     61 H21         3.0767    4.3726    9.7548 H         1 <0>         0.1357
     62 H22         3.2914    4.1727    7.9992 H         1 <0>         0.1293
     63 H23         5.8381    2.7476    6.9733 H         1 <0>         0.3916
     64 H24         7.3435    4.8157    5.6387 H         1 <0>         0.0729
     65 H25         9.0170    4.3229    5.2854 H         1 <0>         0.0845
     66 H26         9.5374    3.0283    3.2960 H         1 <0>         0.1149
     67 H27         8.8848    2.4660    0.9893 H         1 <0>         0.1159
     68 H28         6.5556    2.7840    0.2564 H         1 <0>         0.1145
     69 H29         4.8789    3.6636    1.8306 H         1 <0>         0.1123
     70 H30         5.5296    4.2181    4.1398 H         1 <0>         0.1069
     71 H31         9.3974    3.2648    7.5245 H         1 <0>         0.0921
     72 H32         7.8236    3.9786    7.9510 H         1 <0>         0.0384
     73 H33         7.0639    1.7274    8.4621 H         1 <0>         0.3530
     74 H34         7.8388    3.1932   11.6045 H         1 <0>         0.0692
     75 H35         7.2771    3.9424   10.0907 H         1 <0>         0.0672
     76 H36         6.5581    2.4119   10.6465 H         1 <0>         0.0686
     77 H37         9.4242    1.7438   12.2433 H         1 <0>         0.3970
     78 H38         8.6204   -0.9505   12.5099 H         1 <0>         0.0676
     79 H39        10.2936   -0.9217   11.9033 H         1 <0>         0.0673
     80 H40        10.9145    0.5687   13.8282 H         1 <0>         0.0760
     81 H41         8.0744   -0.0785   14.7401 H         1 <0>         0.0582
     82 H42         9.3040    0.7764   15.7021 H         1 <0>         0.0585
     83 H43         8.6584    1.5203   14.2195 H         1 <0>         0.0530
     84 H44        11.2325   -1.8871   13.9573 H         1 <0>         0.0586
     85 H45        10.8072   -1.2134   15.5490 H         1 <0>         0.0608
     86 H46         9.5776   -2.0683   14.5870 H         1 <0>         0.0589
@<TRIPOS>BOND
     1    1    2 1
     2    1   44 1
     3    1   45 1
     4    1   46 1
     5    2    3 1
     6    2    5 1
     7    2    4 1
     8    4    5 1
     9    4   47 1
    10    4   48 1
    11    5    6 1
    12    5   49 1
    13    6    7 1
    14    6   50 1
    15    6   51 1
    16    7    8 1
    17    7   52 1
    18    7   53 1
    19    8   13 ar
    20    8    9 ar
    21    9   10 ar
    22    9   54 1
    23   10   11 ar
    24   10   20 1
    25   11   12 ar
    26   11   55 1
    27   12   13 ar
    28   12   14 1
    29   13   56 1
    30   14   15 1
    31   14   16 1
    32   15   57 1
    33   15   58 1
    34   15   59 1
    35   16   17 2
    36   16   18 2
    37   16   19 1
    38   19   60 1
    39   19   61 1
    40   19   62 1
    41   20   21 2
    42   20   22 am
    43   22   23 1
    44   22   63 1
    45   23   24 1
    46   23   25 1
    47   23   32 1
    48   25   26 1
    49   25   64 1
    50   25   65 1
    51   26   31 ar
    52   26   27 ar
    53   27   28 ar
    54   27   66 1
    55   28   29 ar
    56   28   67 1
    57   29   30 ar
    58   29   68 1
    59   30   31 ar
    60   30   69 1
    61   31   70 1
    62   32   33 1
    63   32   71 1
    64   32   72 1
    65   33   34 1
    66   33   73 1
    67   34   35 1
    68   34   36 1
    69   34   37 1
    70   36   74 1
    71   36   75 1
    72   36   76 1
    73   37   38 2
    74   37   39 am
    75   39   40 1
    76   39   77 1
    77   40   41 1
    78   40   78 1
    79   40   79 1
    80   41   42 1
    81   41   43 1
    82   41   80 1
    83   42   81 1
    84   42   82 1
    85   42   83 1
    86   43   84 1
    87   43   85 1
    88   43   86 1
@<TRIPOS>MOLECULE
CHEMBL550208
   71    75     0     0     0
SMALL
USER_CHARGES

@<TRIPOS>ATOM
      1 C1         -0.0187    1.5258    0.0104 C.3       1 <0>        -0.1737
      2 C2          0.0021   -0.0041    0.0020 C.3       1 <0>         0.1025
      3 N1          0.7106   -0.4894    1.1889 N.pl3     1 <0>        -0.4703
      4 C3          2.0408   -0.8209    1.2318 C.2       1 <0>         0.0857
      5 C4          2.3819   -1.1882    2.4857 C.2       1 <0>        -0.1908
      6 C5          1.1941   -1.0333    3.2817 C.ar      1 <0>        -0.0925
      7 C6          0.1414   -0.6751    2.4297 C.ar      1 <0>         0.0998
      8 C7         -1.1415   -0.6083    2.9518 C.ar      1 <0>        -0.0723
      9 C8         -1.3484   -0.7944    4.3183 C.ar      1 <0>        -0.1174
     10 C9         -0.2678   -1.0240    5.1879 C.ar      1 <0>        -0.0712
     11 C10         0.9980   -1.1084    4.6815 C.ar      1 <0>         0.1771
     12 N2          2.1545   -1.1954    5.4610 N.pl3     1 <0>        -0.9527
     13 S1          3.0676   -2.5464    5.4581 S.o2      1 <0>         2.6195
     14 O1          2.1940   -3.5487    5.9597 O.2       1 <0>        -0.9537
     15 O2          4.2219   -2.1786    6.2007 O.2       1 <0>        -0.9524
     16 C11         3.5552   -2.9679    3.7696 C.3       1 <0>        -0.6329
     17 C12         3.7448   -1.7087    2.9004 C.3       1 <0>        -0.0169
     18 C13         2.5520   -0.0570    6.2929 C.3       1 <0>         0.0855
     19 C14        -2.7211   -0.7501    4.8591 C.2       1 <0>         0.5634
     20 O3         -2.9112   -0.9113    6.0491 O.2       1 <0>        -0.5091
     21 N3         -3.7638   -0.5311    4.0337 N.am      1 <0>        -0.7265
     22 C15        -5.1263   -0.4871    4.5705 C.3       1 <0>         0.1245
     23 H1         -5.1111   -0.0391    5.5640 H         1 <0>         0.1135
     24 C16        -6.0117    0.3513    3.6464 C.3       1 <0>        -0.0919
     25 C17        -5.5340    1.7806    3.6538 C.ar      1 <0>        -0.0959
     26 C18        -6.0415    2.6742    4.5783 C.ar      1 <0>        -0.1133
     27 C19        -5.6033    3.9852    4.5851 C.ar      1 <0>        -0.1126
     28 C20        -4.6573    4.4025    3.6676 C.ar      1 <0>        -0.1119
     29 C21        -4.1491    3.5087    2.7437 C.ar      1 <0>        -0.1131
     30 C22        -4.5842    2.1966    2.7397 C.ar      1 <0>        -0.1118
     31 C23        -5.6850   -1.9086    4.6605 C.3       1 <0>         0.0651
     32 H2         -5.7002   -2.3567    3.6670 H         1 <0>         0.0828
     33 C24        -7.1079   -1.8627    5.2211 C.3       1 <0>         0.0025
     34 N4         -7.6444   -3.2275    5.3076 N.4       1 <0>        -0.4757
     35 C25        -9.0105   -3.1835    5.8458 C.3       1 <0>        -0.0860
     36 C26        -9.2615   -3.8648    7.1925 C.3       1 <0>        -0.1535
     37 C27        -9.7896   -4.4990    5.9042 C.3       1 <0>        -0.1540
     38 O4         -4.8580   -2.6917    5.5236 O.3       1 <0>        -0.5578
     39 H3          1.0039    1.9031    0.0027 H         1 <0>         0.0666
     40 H4         -0.5459    1.8868   -0.8726 H         1 <0>         0.0793
     41 H5         -0.5289    1.8773    0.9072 H         1 <0>         0.0623
     42 H6         -1.0205   -0.3814    0.0098 H         1 <0>         0.0873
     43 H7          0.5123   -0.3556   -0.8948 H         1 <0>         0.0974
     44 H8          2.7148   -0.7928    0.3884 H         1 <0>         0.1788
     45 H9         -1.9802   -0.4119    2.3003 H         1 <0>         0.1238
     46 H10        -0.4383   -1.1384    6.2482 H         1 <0>         0.1478
     47 H11         4.4918   -3.5249    3.7985 H         1 <0>         0.1463
     48 H12         2.7838   -3.5951    3.3228 H         1 <0>         0.1363
     49 H13         4.3246   -1.9616    2.0128 H         1 <0>         0.0995
     50 H14         4.2682   -0.9443    3.4748 H         1 <0>         0.0860
     51 H15         2.0968   -0.1509    7.2788 H         1 <0>         0.0655
     52 H16         3.6372   -0.0419    6.3937 H         1 <0>         0.0978
     53 H17         2.2177    0.8691    5.8252 H         1 <0>         0.0768
     54 H18        -3.6122   -0.4025    3.0843 H         1 <0>         0.4039
     55 H19        -5.9566   -0.0450    2.6325 H         1 <0>         0.0864
     56 H20        -7.0431    0.3111    3.9966 H         1 <0>         0.0903
     57 H21        -6.7806    2.3481    5.2951 H         1 <0>         0.1203
     58 H22        -6.0004    4.6836    5.3070 H         1 <0>         0.1260
     59 H23        -4.3155    5.4270    3.6725 H         1 <0>         0.1257
     60 H24        -3.4103    3.8348    2.0267 H         1 <0>         0.1240
     61 H25        -4.1844    1.4973    2.0202 H         1 <0>         0.1151
     62 H26        -7.0927   -1.4147    6.2147 H         1 <0>         0.1435
     63 H27        -7.7387   -1.2654    4.5628 H         1 <0>         0.1466
     64 H28        -7.6584   -3.6423    4.3879 H         1 <0>         0.4263
     65 H29        -9.5723   -2.2750    5.6286 H         1 <0>         0.1776
     66 H30        -8.4130   -4.3458    7.6792 H         1 <0>         0.1226
     67 H31        -9.9886   -3.4046    7.8617 H         1 <0>         0.1340
     68 H32       -10.8640   -4.4559    5.7257 H         1 <0>         0.1342
     69 H33        -9.2885   -5.3971    5.5432 H         1 <0>         0.1210
     70 H34        -3.9398   -2.7642    5.2292 H         1 <0>         0.4040
     71 H35        -7.0604   -3.7805    5.9170 H         1 <0>         0.4351
@<TRIPOS>BOND
     1    1    2 1
     2    1   39 1
     3    1   40 1
     4    1   41 1
     5    2    3 1
     6    2   42 1
     7    2   43 1
     8    3    7 1
     9    3    4 1
    10    4    5 2
    11    4   44 1
    12    5   17 1
    13    5    6 1
    14    6   11 ar
    15    6    7 ar
    16    7    8 ar
    17    8    9 ar
    18    8   45 1
    19    9   10 ar
    20    9   19 1
    21   10   11 ar
    22   10   46 1
    23   11   12 1
    24   12   13 1
    25   12   18 1
    26   13   14 2
    27   13   15 2
    28   13   16 1
    29   16   17 1
    30   16   47 1
    31   16   48 1
    32   17   49 1
    33   17   50 1
    34   18   51 1
    35   18   52 1
    36   18   53 1
    37   19   20 2
    38   19   21 am
    39   21   22 1
    40   21   54 1
    41   22   23 1
    42   22   24 1
    43   22   31 1
    44   24   25 1
    45   24   55 1
    46   24   56 1
    47   25   30 ar
    48   25   26 ar
    49   26   27 ar
    50   26   57 1
    51   27   28 ar
    52   27   58 1
    53   28   29 ar
    54   28   59 1
    55   29   30 ar
    56   29   60 1
    57   30   61 1
    58   31   32 1
    59   31   33 1
    60   31   38 1
    61   33   34 1
    62   33   62 1
    63   33   63 1
    64   34   35 1
    65   34   64 1
    66   34   71 1
    67   35   37 1
    68   35   36 1
    69   35   65 1
    70   36   37 1
    71   36   66 1
    72   36   67 1
    73   37   68 1
    74   37   69 1
    75   38   70 1
@<TRIPOS>MOLECULE
CHEMBL565914
   57    61     0     0     0
SMALL
USER_CHARGES

@<TRIPOS>ATOM
      1 C1         -0.5154    1.1628    0.1036 C.ar      1 <0>        -0.0999
      2 C2          0.5522    2.0354    0.0393 C.ar      1 <0>        -0.0807
      3 C3          1.8509    1.5381   -0.0456 C.ar      1 <0>        -0.0313
      4 C4          2.0644    0.1609   -0.0651 C.ar      1 <0>        -0.0453
      5 C5          0.9897   -0.7022   -0.0003 C.ar      1 <0>        -0.0893
      6 C6         -0.2978   -0.2029    0.0839 C.ar      1 <0>        -0.1287
      7 C7          1.2188   -2.1915   -0.0217 C.3       1 <0>         0.2172
      8 C8          0.1995   -2.8959    0.8341 C.cat     1 <0>         0.5085
      9 N1         -1.0804   -2.9087    0.7495 N.pl3     1 <0>        -0.5696
     10 C9         -1.8784   -3.5162    1.8176 C.3       1 <0>         0.0534
     11 C10        -1.3660   -2.9640    3.1457 C.3       1 <0>        -0.1608
     12 C11        -0.3634   -3.9460    3.7883 C.3       1 <0>        -0.1427
     13 C12         0.3530   -4.6611    2.6211 C.3       1 <0>         0.0752
     14 N2          0.9332   -3.6500    1.7238 N.pl3     1 <0>        -0.5348
     15 C13         2.2640   -3.3393    1.5996 C.2       1 <0>         0.6002
     16 N3          2.5041   -2.5266    0.6158 N.2       1 <0>        -0.5315
     17 N4          3.2406   -3.8365    2.4295 N.pl3     1 <0>        -0.8057
     18 C14         1.1777   -2.7116   -1.4355 C.ar      1 <0>        -0.1225
     19 C15         2.2514   -3.4208   -1.9415 C.ar      1 <0>        -0.0363
     20 C16         2.2164   -3.8982   -3.2373 C.ar      1 <0>        -0.1168
     21 C17         1.1025   -3.6660   -4.0310 C.ar      1 <0>         0.1360
     22 C18         0.0263   -2.9545   -3.5208 C.ar      1 <0>        -0.1830
     23 C19         0.0641   -2.4837   -2.2226 C.ar      1 <0>        -0.0703
     24 O1          1.0658   -4.1342   -5.3063 O.3       1 <0>        -0.3051
     25 C20        -0.1130   -3.8576   -6.0653 C.3       1 <0>         0.6045
     26 F1         -0.2874   -2.4734   -6.1680 F         1 <0>        -0.1607
     27 F2          0.0168   -4.4075   -7.3451 F         1 <0>        -0.1214
     28 F3         -1.2223   -4.4213   -5.4258 F         1 <0>        -0.1637
     29 C21         3.0024    2.4710   -0.1155 C.ar      1 <0>        -0.1355
     30 C22         3.0070    3.5255   -1.0312 C.ar      1 <0>        -0.0311
     31 C23         4.1052    4.3687   -1.0574 C.ar      1 <0>        -0.1771
     32 C24         5.1534    4.1432   -0.1847 C.ar      1 <0>         0.1477
     33 N5          5.1233    3.1388    0.6702 N.ar      1 <0>        -0.5085
     34 C25         4.0968    2.3127    0.7369 C.ar      1 <0>         0.3234
     35 F4          4.1072    1.3020    1.6333 F         1 <0>        -0.1073
     36 H1         -1.5222    1.5472    0.1739 H         1 <0>         0.1396
     37 H2          0.3811    3.1017    0.0543 H         1 <0>         0.1380
     38 H3          3.0690   -0.2299   -0.1311 H         1 <0>         0.1445
     39 H4         -1.1360   -0.8820    0.1347 H         1 <0>         0.1065
     40 H5         -2.9288   -3.2551    1.6889 H         1 <0>         0.1390
     41 H6         -1.7605   -4.5996    1.7972 H         1 <0>         0.1204
     42 H7         -0.8726   -2.0078    2.9719 H         1 <0>         0.0812
     43 H8         -2.2074   -2.8140    3.8222 H         1 <0>         0.1141
     44 H9          0.3603   -3.3995    4.3930 H         1 <0>         0.0946
     45 H10        -0.8937   -4.6730    4.4034 H         1 <0>         0.1135
     46 H11         1.1458   -5.2973    3.0147 H         1 <0>         0.1231
     47 H12        -0.3647   -5.2689    2.0702 H         1 <0>         0.1134
     48 H13         3.0034   -4.4416    3.1496 H         1 <0>         0.4190
     49 H14         4.1670   -3.5823    2.2950 H         1 <0>         0.4412
     50 H15         3.1183   -3.6013   -1.3232 H         1 <0>         0.1544
     51 H16         3.0556   -4.4515   -3.6323 H         1 <0>         0.1533
     52 H17        -0.8420   -2.7724   -4.1367 H         1 <0>         0.1461
     53 H18        -0.7753   -1.9336   -1.8236 H         1 <0>         0.1268
     54 H19         2.1750    3.6793   -1.7025 H         1 <0>         0.1495
     55 H20         4.1426    5.1941   -1.7529 H         1 <0>         0.1530
     56 H21         6.0108    4.7996   -0.2034 H         1 <0>         0.1748
     57 H22        -1.5197   -2.5162   -0.0210 H         1 <0>         0.4475
@<TRIPOS>BOND
     1    1    6 ar
     2    1    2 ar
     3    1   36 1
     4    2    3 ar
     5    2   37 1
     6    3    4 ar
     7    3   29 1
     8    4    5 ar
     9    4   38 1
    10    5    6 ar
    11    5    7 1
    12    6   39 1
    13    7   16 1
    14    7    8 1
    15    7   18 1
    16    8   14 1
    17    8    9 2
    18    9   10 1
    19    9   57 1
    20   10   11 1
    21   10   40 1
    22   10   41 1
    23   11   12 1
    24   11   42 1
    25   11   43 1
    26   12   13 1
    27   12   44 1
    28   12   45 1
    29   13   14 1
    30   13   46 1
    31   13   47 1
    32   14   15 1
    33   15   16 2
    34   15   17 1
    35   17   48 1
    36   17   49 1
    37   18   23 ar
    38   18   19 ar
    39   19   20 ar
    40   19   50 1
    41   20   21 ar
    42   20   51 1
    43   21   22 ar
    44   21   24 1
    45   22   23 ar
    46   22   52 1
    47   23   53 1
    48   24   25 1
    49   25   26 1
    50   25   27 1
    51   25   28 1
    52   29   34 ar
    53   29   30 ar
    54   30   31 ar
    55   30   54 1
    56   31   32 ar
    57   31   55 1
    58   32   33 ar
    59   32   56 1
    60   33   34 ar
    61   34   35 1
@<TRIPOS>MOLECULE
CHEMBL565914__1
   57    61     0     0     0
SMALL
USER_CHARGES

@<TRIPOS>ATOM
      1 C1          0.2520    1.3767    0.7578 C.ar      1 <0>        -0.1032
      2 C2          1.1707    2.0877    0.0123 C.ar      1 <0>        -0.0767
      3 C3          2.1168    1.4096   -0.7535 C.ar      1 <0>        -0.0362
      4 C4          2.1297    0.0160   -0.7621 C.ar      1 <0>        -0.0559
      5 C5          1.2065   -0.6846   -0.0130 C.ar      1 <0>        -0.0999
      6 C6          0.2693   -0.0062    0.7455 C.ar      1 <0>        -0.1089
      7 C7          1.2188   -2.1915   -0.0217 C.3       1 <0>         0.2174
      8 C8         -0.0143   -2.7267   -0.7003 C.cat     1 <0>         0.5085
      9 N1         -1.2492   -2.6188   -0.3705 N.pl3     1 <0>        -0.5703
     10 C9         -2.2682   -3.3908   -1.0864 C.3       1 <0>         0.0536
     11 C10        -1.7851   -4.8376   -1.1553 C.3       1 <0>        -0.1612
     12 C11        -1.0981   -5.1139   -2.5096 C.3       1 <0>        -0.1425
     13 C12        -0.4426   -3.7839   -2.9435 C.3       1 <0>         0.0751
     14 N2          0.4374   -3.3091   -1.8645 N.pl3     1 <0>        -0.5345
     15 C13         1.8095   -3.3269   -1.8657 C.2       1 <0>         0.5983
     16 N3          2.3245   -2.6952   -0.8550 N.2       1 <0>        -0.5302
     17 N4          2.5601   -3.9480   -2.8356 N.pl3     1 <0>        -0.8066
     18 C14         1.3282   -2.7266    1.3829 C.ar      1 <0>        -0.1120
     19 C15         0.1834   -3.0009    2.1080 C.ar      1 <0>        -0.0958
     20 C16         0.2810   -3.4911    3.3959 C.ar      1 <0>        -0.1116
     21 C17         1.5291   -3.7084    3.9614 C.ar      1 <0>         0.1330
     22 C18         2.6762   -3.4327    3.2315 C.ar      1 <0>        -0.1808
     23 C19         2.5732   -2.9476    1.9421 C.ar      1 <0>        -0.0200
     24 O1          1.6277   -4.1901    5.2283 O.3       1 <0>        -0.3074
     25 C20         2.9447   -4.3893    5.7459 C.3       1 <0>         0.6049
     26 F1          3.6325   -3.1711    5.7523 F         1 <0>        -0.1597
     27 F2          2.8626   -4.8853    7.0514 F         1 <0>        -0.1222
     28 F3          3.6284   -5.3066    4.9407 F         1 <0>        -0.1614
     29 C21         3.1065    2.1683   -1.5572 C.ar      1 <0>        -0.1364
     30 C22         2.6928    3.1982   -2.4048 C.ar      1 <0>        -0.0331
     31 C23         3.6552    3.8763   -3.1340 C.ar      1 <0>        -0.1785
     32 C24         4.9834    3.5166   -3.0019 C.ar      1 <0>         0.1478
     33 N5          5.3468    2.5390   -2.1939 N.ar      1 <0>        -0.5078
     34 C25         4.4676    1.8683   -1.4743 C.ar      1 <0>         0.3243
     35 F4          4.8870    0.8792   -0.6552 F         1 <0>        -0.1039
     36 H1         -0.4790    1.9013    1.3553 H         1 <0>         0.1414
     37 H2          1.1561    3.1675    0.0223 H         1 <0>         0.1379
     38 H3          2.8606   -0.5147   -1.3542 H         1 <0>         0.1411
     39 H4         -0.4512   -0.5585    1.3305 H         1 <0>         0.1196
     40 H5         -3.2150   -3.3421   -0.5486 H         1 <0>         0.1396
     41 H6         -2.3930   -2.9940   -2.0939 H         1 <0>         0.1201
     42 H7         -1.0759   -5.0195   -0.3478 H         1 <0>         0.0812
     43 H8         -2.6370   -5.5078   -1.0401 H         1 <0>         0.1146
     44 H9         -0.3370   -5.8854   -2.3925 H         1 <0>         0.0944
     45 H10        -1.8374   -5.4250   -3.2476 H         1 <0>         0.1135
     46 H11         0.1436   -3.9443   -3.8483 H         1 <0>         0.1225
     47 H12        -1.2170   -3.0413   -3.1358 H         1 <0>         0.1133
     48 H13         2.1211   -4.4056   -3.5696 H         1 <0>         0.4188
     49 H14         3.5286   -3.9287   -2.7859 H         1 <0>         0.4410
     50 H15        -0.7880   -2.8316    1.6673 H         1 <0>         0.1184
     51 H16        -0.6135   -3.7045    3.9622 H         1 <0>         0.1516
     52 H17         3.6490   -3.6010    3.6696 H         1 <0>         0.1472
     53 H18         3.4660   -2.7371    1.3720 H         1 <0>         0.1536
     54 H19         1.6482    3.4591   -2.4898 H         1 <0>         0.1481
     55 H20         3.3709    4.6780   -3.7995 H         1 <0>         0.1525
     56 H21         5.7357    4.0440   -3.5696 H         1 <0>         0.1747
     57 H22        -1.5083   -2.0266    0.3527 H         1 <0>         0.4484
@<TRIPOS>BOND
     1    1    6 ar
     2    1    2 ar
     3    1   36 1
     4    2    3 ar
     5    2   37 1
     6    3    4 ar
     7    3   29 1
     8    4    5 ar
     9    4   38 1
    10    5    6 ar
    11    5    7 1
    12    6   39 1
    13    7   16 1
    14    7    8 1
    15    7   18 1
    16    8   14 1
    17    8    9 2
    18    9   10 1
    19    9   57 1
    20   10   11 1
    21   10   40 1
    22   10   41 1
    23   11   12 1
    24   11   42 1
    25   11   43 1
    26   12   13 1
    27   12   44 1
    28   12   45 1
    29   13   14 1
    30   13   46 1
    31   13   47 1
    32   14   15 1
    33   15   16 2
    34   15   17 1
    35   17   48 1
    36   17   49 1
    37   18   23 ar
    38   18   19 ar
    39   19   20 ar
    40   19   50 1
    41   20   21 ar
    42   20   51 1
    43   21   22 ar
    44   21   24 1
    45   22   23 ar
    46   22   52 1
    47   23   53 1
    48   24   25 1
    49   25   26 1
    50   25   27 1
    51   25   28 1
    52   29   34 ar
    53   29   30 ar
    54   30   31 ar
    55   30   54 1
    56   31   32 ar
    57   31   55 1
    58   32   33 ar
    59   32   56 1
    60   33   34 ar
    61   34   35 1
@<TRIPOS>MOLECULE
CHEMBL248922
   79    83     0     0     0
SMALL
USER_CHARGES

@<TRIPOS>ATOM
      1 C1         -0.7408   -2.4475    0.9308 C.3       1 <0>        -0.1870
      2 C2          0.7026   -1.9511    1.0378 C.3       1 <0>        -0.0186
      3 N1          0.7146   -0.4824    1.0640 N.4       1 <0>        -0.3822
      4 C3          2.1030   -0.0035    1.0313 C.3       1 <0>         0.0387
      5 C4          2.7348   -0.3839   -0.2829 C.ar      1 <0>        -0.1577
      6 C5          3.3878   -1.5956   -0.4107 C.ar      1 <0>        -0.0988
      7 C6          3.9674   -1.9446   -1.6162 C.ar      1 <0>        -0.1130
      8 C7          3.8935   -1.0821   -2.6940 C.ar      1 <0>        -0.0850
      9 C8          3.2397    0.1291   -2.5664 C.ar      1 <0>        -0.1125
     10 C9          2.6564    0.4762   -1.3622 C.ar      1 <0>        -0.0935
     11 C10         0.0622   -0.0092    2.2922 C.3       1 <0>         0.0387
     12 C11        -0.0524    1.4929    2.2534 C.ar      1 <0>        -0.1543
     13 C12         0.9091    2.2733    2.8703 C.ar      1 <0>        -0.0895
     14 C13         0.8096    3.6492    2.8382 C.ar      1 <0>        -0.0930
     15 C14        -0.2628    4.2528    2.1822 C.ar      1 <0>         0.0087
     16 C15        -1.2289    3.4608    1.5623 C.ar      1 <0>        -0.0936
     17 C16        -1.1155    2.0860    1.5963 C.ar      1 <0>        -0.0919
     18 C17        -0.3757    5.7297    2.1446 C.2       1 <0>        -0.1863
     19 C18        -0.2920    6.4235    0.9610 C.2       1 <0>         0.0172
     20 C19        -0.4152    7.8821    1.0236 C.ar      1 <0>        -0.1162
     21 C20        -0.6081    8.6361   -0.1396 C.ar      1 <0>        -0.0900
     22 C21        -0.7236   10.0090   -0.0503 C.ar      1 <0>         0.1178
     23 C22        -0.6495   10.6410    1.1882 C.ar      1 <0>        -0.1495
     24 C23        -0.4587    9.9077    2.3403 C.ar      1 <0>        -0.0843
     25 C24        -0.3384    8.5270    2.2719 C.ar      1 <0>         0.0998
     26 O1         -0.1441    7.7933    3.3950 O.3       1 <0>        -0.2718
     27 C25        -0.5884    6.5138    3.3732 C.2       1 <0>         0.5197
     28 O2         -1.1430    6.0244    4.3399 O.2       1 <0>        -0.4267
     29 O3         -0.9101   10.7472   -1.1766 O.3       1 <0>        -0.3068
     30 C26        -1.0217   12.1625   -1.0137 C.3       1 <0>         0.0422
     31 C27        -1.2262   12.8187   -2.3806 C.3       1 <0>         0.1217
     32 N2         -2.5105   12.3906   -2.9406 N.am      1 <0>        -0.7321
     33 C28        -2.9050   12.8452   -4.1464 C.2       1 <0>         0.5140
     34 O4         -2.1967   13.6087   -4.7680 O.2       1 <0>        -0.5336
     35 C29        -4.2261   12.4049   -4.7224 C.3       1 <0>        -0.1362
     36 C30        -4.4306   13.0610   -6.0894 C.3       1 <0>        -0.0660
     37 C31        -5.7517   12.6207   -6.6654 C.ar      1 <0>        -0.0660
     38 C32        -5.8181   11.4856   -7.4519 C.ar      1 <0>        -0.0969
     39 C33        -7.0286   11.0797   -7.9812 C.ar      1 <0>        -0.1221
     40 C34        -8.1761   11.8096   -7.7238 C.ar      1 <0>         0.0646
     41 C35        -8.1096   12.9476   -6.9347 C.ar      1 <0>         0.0720
     42 C36        -6.8967   13.3488   -6.4021 C.ar      1 <0>        -0.1228
     43 F1         -9.2282   13.6619   -6.6824 F         1 <0>        -0.1261
     44 F2         -9.3597   11.4137   -8.2413 F         1 <0>        -0.1271
     45 H1         -1.2202   -1.9871    0.0670 H         1 <0>         0.0789
     46 H2         -0.7446   -3.5312    0.8139 H         1 <0>         0.1061
     47 H3         -1.2857   -2.1777    1.8355 H         1 <0>         0.0810
     48 H4          1.1517   -2.3346    1.9539 H         1 <0>         0.1302
     49 H5          1.2727   -2.3039    0.1783 H         1 <0>         0.1325
     50 H6          2.1159    1.0810    1.1402 H         1 <0>         0.1368
     51 H7          2.6633   -0.4574    1.8487 H         1 <0>         0.1351
     52 H8          3.4456   -2.2694    0.4313 H         1 <0>         0.1311
     53 H9          4.4782   -2.8909   -1.7159 H         1 <0>         0.1361
     54 H10         4.3469   -1.3545   -3.6356 H         1 <0>         0.1357
     55 H11         3.1822    0.8031   -3.4084 H         1 <0>         0.1356
     56 H12         2.1424    1.4209   -1.2636 H         1 <0>         0.1296
     57 H13        -0.9329   -0.4477    2.3671 H         1 <0>         0.1410
     58 H14         0.6561   -0.3062    3.1566 H         1 <0>         0.1375
     59 H15         1.7390    1.8047    3.3782 H         1 <0>         0.1367
     60 H16         1.5606    4.2574    3.3204 H         1 <0>         0.1365
     61 H17        -2.0618    3.9226    1.0531 H         1 <0>         0.1389
     62 H18        -1.8605    1.4717    1.1126 H         1 <0>         0.1355
     63 H19        -0.1409    5.9133    0.0212 H         1 <0>         0.1579
     64 H20        -0.6658    8.1472   -1.1009 H         1 <0>         0.1491
     65 H21        -0.7418   11.7155    1.2470 H         1 <0>         0.1486
     66 H22        -0.4026   10.4079    3.2958 H         1 <0>         0.1513
     67 H23        -1.8728   12.3883   -0.3713 H         1 <0>         0.0762
     68 H24        -0.1099   12.5488   -0.5580 H         1 <0>         0.0867
     69 H25        -1.2224   13.9028   -2.2674 H         1 <0>         0.0951
     70 H26        -0.4201   12.5206   -3.0510 H         1 <0>         0.0829
     71 H27        -3.0769   11.7799   -2.4434 H         1 <0>         0.4040
     72 H28        -4.2298   11.3207   -4.8356 H         1 <0>         0.0982
     73 H29        -5.0322   12.7030   -4.0520 H         1 <0>         0.0981
     74 H30        -4.4269   14.1451   -5.9762 H         1 <0>         0.0877
     75 H31        -3.6245   12.7629   -6.7598 H         1 <0>         0.0889
     76 H32        -4.9231   10.9156   -7.6531 H         1 <0>         0.1412
     77 H33        -7.0791   10.1932   -8.5961 H         1 <0>         0.1476
     78 H34        -6.8442   14.2330   -5.7842 H         1 <0>         0.1471
     79 H35         0.2174   -0.1276    0.2609 H         1 <0>         0.4209
@<TRIPOS>BOND
     1    1    2 1
     2    1   45 1
     3    1   46 1
     4    1   47 1
     5    2    3 1
     6    2   48 1
     7    2   49 1
     8    3    4 1
     9    3   11 1
    10    3   79 1
    11    4    5 1
    12    4   50 1
    13    4   51 1
    14    5   10 ar
    15    5    6 ar
    16    6    7 ar
    17    6   52 1
    18    7    8 ar
    19    7   53 1
    20    8    9 ar
    21    8   54 1
    22    9   10 ar
    23    9   55 1
    24   10   56 1
    25   11   12 1
    26   11   57 1
    27   11   58 1
    28   12   17 ar
    29   12   13 ar
    30   13   14 ar
    31   13   59 1
    32   14   15 ar
    33   14   60 1
    34   15   16 ar
    35   15   18 1
    36   16   17 ar
    37   16   61 1
    38   17   62 1
    39   18   27 1
    40   18   19 2
    41   19   20 1
    42   19   63 1
    43   20   25 ar
    44   20   21 ar
    45   21   22 ar
    46   21   64 1
    47   22   23 ar
    48   22   29 1
    49   23   24 ar
    50   23   65 1
    51   24   25 ar
    52   24   66 1
    53   25   26 1
    54   26   27 1
    55   27   28 2
    56   29   30 1
    57   30   31 1
    58   30   67 1
    59   30   68 1
    60   31   32 1
    61   31   69 1
    62   31   70 1
    63   32   33 am
    64   32   71 1
    65   33   34 2
    66   33   35 1
    67   35   36 1
    68   35   72 1
    69   35   73 1
    70   36   37 1
    71   36   74 1
    72   36   75 1
    73   37   42 ar
    74   37   38 ar
    75   38   39 ar
    76   38   76 1
    77   39   40 ar
    78   39   77 1
    79   40   41 ar
    80   40   44 1
    81   41   42 ar
    82   41   43 1
    83   42   78 1
@<TRIPOS>MOLECULE
CHEMBL571433
   84    87     0     0     0
SMALL
USER_CHARGES

@<TRIPOS>ATOM
      1 C1          0.3819    1.0800   -0.6000 C.3       1 <0>        -0.1820
      2 C2          0.2296   -0.4088   -0.4229 C.2       1 <0>         0.5126
      3 O1          1.2133   -1.1136   -0.3420 O.2       1 <0>        -0.5294
      4 N1         -0.9997   -0.9571   -0.3544 N.am      1 <0>        -0.7328
      5 C3         -1.1477   -2.4044   -0.1822 C.3       1 <0>         0.1325
      6 H1         -2.2068   -2.6599   -0.1489 H         1 <0>         0.1047
      7 C4         -0.4851   -3.1281   -1.3561 C.3       1 <0>        -0.0980
      8 C5         -1.2226   -2.8005   -2.6289 C.ar      1 <0>        -0.0310
      9 C6         -2.2831   -3.5884   -3.0348 C.ar      1 <0>        -0.1652
     10 C7         -2.9611   -3.2887   -4.2043 C.ar      1 <0>         0.1415
     11 C8         -2.5767   -2.1993   -4.9668 C.ar      1 <0>        -0.1911
     12 C9         -1.5147   -1.4106   -4.5591 C.ar      1 <0>         0.1396
     13 C10        -0.8414   -1.7092   -3.3865 C.ar      1 <0>        -0.1592
     14 F1         -1.1384   -0.3470   -5.3024 F         1 <0>        -0.1251
     15 F2         -3.9972   -4.0595   -4.6013 F         1 <0>        -0.1241
     16 C11        -0.4782   -2.8336    1.1249 C.3       1 <0>         0.0701
     17 H2          0.5809   -2.5781    1.0916 H         1 <0>         0.1468
     18 C12        -1.1408   -2.1099    2.2989 C.3       1 <0>        -0.0513
     19 N2         -0.4219   -2.4292    3.5396 N.4       1 <0>        -0.4915
     20 C13        -1.0563   -1.7320    4.6663 C.3       1 <0>         0.1208
     21 C14        -0.3208   -2.0813    5.9630 C.3       1 <0>        -0.1394
     22 C15         1.1269   -1.5917    5.8672 C.3       1 <0>        -0.1418
     23 C16         1.1341   -0.0844    5.6030 C.3       1 <0>         0.2944
     24 H3          2.1632    0.2649    5.5201 H         1 <0>         0.1385
     25 N3          0.4192    0.1979    4.3517 N.3       1 <0>        -0.6861
     26 C17        -0.9858   -0.2205    4.4369 C.3       1 <0>         0.0319
     27 N4          0.4712    0.6085    6.7106 N.pl3     1 <0>        -0.7381
     28 C18         1.0261    1.7699    7.2354 C.ar      1 <0>         0.4367
     29 C19         2.1278    2.3496    6.6139 C.ar      1 <0>        -0.2000
     30 C20         2.6697    3.5050    7.1467 C.ar      1 <0>         0.0462
     31 C21         2.0898    4.0443    8.2876 C.ar      1 <0>        -0.1568
     32 C22         0.9979    3.4166    8.8523 C.ar      1 <0>         0.1537
     33 N5          0.4983    2.3177    8.3190 N.ar      1 <0>        -0.4962
     34 C23        -2.4978   -2.1578    4.7741 C.ar      1 <0>        -0.1338
     35 C24        -2.8729   -3.4318    4.3896 C.ar      1 <0>        -0.1327
     36 C25        -4.1950   -3.8223    4.4886 C.ar      1 <0>        -0.0898
     37 C26        -5.1424   -2.9392    4.9725 C.ar      1 <0>        -0.0911
     38 C27        -4.7672   -1.6660    5.3577 C.ar      1 <0>        -0.0433
     39 C28        -3.4440   -1.2767    5.2628 C.ar      1 <0>        -0.0947
     40 C29        -5.7999   -0.7033    5.8847 C.3       1 <0>        -0.0353
     41 C30        -7.1722   -1.3798    5.8901 C.3       1 <0>        -0.1546
     42 C31        -5.4302   -0.2887    7.3103 C.3       1 <0>        -0.1394
     43 C32        -5.8459    0.5362    4.9889 C.3       1 <0>        -0.1399
     44 O2         -0.6226   -4.2453    1.2929 O.3       1 <0>        -0.5421
     45 H4          1.4410    1.3355   -0.6333 H         1 <0>         0.0999
     46 H5         -0.0951    1.3857   -1.5312 H         1 <0>         0.0962
     47 H6         -0.0901    1.5955    0.2363 H         1 <0>         0.0868
     48 H7         -1.7864   -0.3934   -0.4191 H         1 <0>         0.4107
     49 H8          0.5521   -2.8046   -1.4437 H         1 <0>         0.1082
     50 H9         -0.5169   -4.2040   -1.1844 H         1 <0>         0.1016
     51 H10        -2.5829   -4.4383   -2.4397 H         1 <0>         0.1428
     52 H11        -3.1047   -1.9649   -5.8793 H         1 <0>         0.1535
     53 H12        -0.0156   -1.0915   -3.0659 H         1 <0>         0.1352
     54 H13        -1.1089   -1.0340    2.1271 H         1 <0>         0.1409
     55 H14        -2.1780   -2.4333    2.3864 H         1 <0>         0.1390
     56 H15        -0.4531   -3.4249    3.6996 H         1 <0>         0.4292
     57 H16        -0.8148   -1.5952    6.8043 H         1 <0>         0.1047
     58 H17        -0.3311   -3.1616    6.1080 H         1 <0>         0.1100
     59 H18         1.6440   -1.7995    6.8040 H         1 <0>         0.1136
     60 H19         1.6319   -2.1068    5.0501 H         1 <0>         0.1000
     61 H20         0.4916    1.1739    4.1063 H         1 <0>         0.3770
     62 H21        -1.4963    0.0298    3.5069 H         1 <0>         0.1146
     63 H22        -1.4689    0.2956    5.2665 H         1 <0>         0.0827
     64 H23        -0.3548    0.2568    7.0778 H         1 <0>         0.4118
     65 H24         2.5540    1.9032    5.7277 H         1 <0>         0.1788
     66 H25         3.5250    3.9772    6.6862 H         1 <0>         0.1803
     67 H26         2.4893    4.9456    8.7287 H         1 <0>         0.1876
     68 H27         0.5441    3.8324    9.7398 H         1 <0>         0.2124
     69 H28        -2.1329   -4.1216    4.0116 H         1 <0>         0.1201
     70 H29        -4.4881   -4.8172    4.1875 H         1 <0>         0.1407
     71 H30        -6.1756   -3.2442    5.0491 H         1 <0>         0.1437
     72 H31        -3.1502   -0.2831    5.5674 H         1 <0>         0.1248
     73 H32        -7.1395   -2.2628    6.5283 H         1 <0>         0.0637
     74 H33        -7.9191   -0.6835    6.2713 H         1 <0>         0.0699
     75 H34        -7.4356   -1.6752    4.8745 H         1 <0>         0.0639
     76 H35        -4.4525    0.1933    7.3065 H         1 <0>         0.0468
     77 H36        -6.1771    0.4076    7.6915 H         1 <0>         0.0696
     78 H37        -5.3974   -1.1717    7.9486 H         1 <0>         0.0611
     79 H38        -6.1093    0.2409    3.9733 H         1 <0>         0.0612
     80 H39        -6.5928    1.2325    5.3701 H         1 <0>         0.0695
     81 H40        -4.8682    1.0182    4.9851 H         1 <0>         0.0493
     82 H41        -1.5412   -4.5449    1.3310 H         1 <0>         0.3873
     83 H42         0.5387   -2.1316    3.4578 H         1 <0>         0.4341
     84 H43        -0.2721    1.8987    8.7336 H         1 <0>         0.4427
@<TRIPOS>BOND
     1    1    2 1
     2    1   45 1
     3    1   46 1
     4    1   47 1
     5    2    3 2
     6    2    4 am
     7    4    5 1
     8    4   48 1
     9    5    6 1
    10    5    7 1
    11    5   16 1
    12    7    8 1
    13    7   49 1
    14    7   50 1
    15    8   13 ar
    16    8    9 ar
    17    9   10 ar
    18    9   51 1
    19   10   11 ar
    20   10   15 1
    21   11   12 ar
    22   11   52 1
    23   12   13 ar
    24   12   14 1
    25   13   53 1
    26   16   17 1
    27   16   18 1
    28   16   44 1
    29   18   19 1
    30   18   54 1
    31   18   55 1
    32   19   20 1
    33   19   56 1
    34   19   83 1
    35   20   26 1
    36   20   21 1
    37   20   34 1
    38   21   22 1
    39   21   57 1
    40   21   58 1
    41   22   23 1
    42   22   59 1
    43   22   60 1
    44   23   24 1
    45   23   25 1
    46   23   27 1
    47   25   26 1
    48   25   61 1
    49   26   62 1
    50   26   63 1
    51   27   28 1
    52   27   64 1
    53   28   33 ar
    54   28   29 ar
    55   29   30 ar
    56   29   65 1
    57   30   31 ar
    58   30   66 1
    59   31   32 ar
    60   31   67 1
    61   32   33 ar
    62   32   68 1
    63   33   84 1
    64   34   39 ar
    65   34   35 ar
    66   35   36 ar
    67   35   69 1
    68   36   37 ar
    69   36   70 1
    70   37   38 ar
    71   37   71 1
    72   38   39 ar
    73   38   40 1
    74   39   72 1
    75   40   41 1
    76   40   42 1
    77   40   43 1
    78   41   73 1
    79   41   74 1
    80   41   75 1
    81   42   76 1
    82   42   77 1
    83   42   78 1
    84   43   79 1
    85   43   80 1
    86   43   81 1
    87   44   82 1
@<TRIPOS>MOLECULE
CHEMBL571433__1
   83    86     0     0     0
SMALL
USER_CHARGES

@<TRIPOS>ATOM
      1 C1          0.7311    0.5895    0.9076 C.3       1 <0>        -0.1804
      2 C2          0.4596   -0.8584    0.5900 C.2       1 <0>         0.5143
      3 O1          0.2889   -1.6547    1.4887 O.2       1 <0>        -0.5314
      4 N1          0.4065   -1.2685   -0.6928 N.am      1 <0>        -0.7321
      5 C3          0.1426   -2.6761   -1.0015 C.3       1 <0>         0.1331
      6 H1          0.1372   -2.8161   -2.0824 H         1 <0>         0.1036
      7 C4          1.2351   -3.5481   -0.3796 C.3       1 <0>        -0.0988
      8 C5          2.5576   -3.2380   -1.0323 C.ar      1 <0>        -0.0277
      9 C6          2.9537   -3.9377   -2.1564 C.ar      1 <0>        -0.1648
     10 C7          4.1689   -3.6539   -2.7567 C.ar      1 <0>         0.1395
     11 C8          4.9867   -2.6688   -2.2307 C.ar      1 <0>        -0.1928
     12 C9          4.5887   -1.9684   -1.1051 C.ar      1 <0>         0.1387
     13 C10         3.3708   -2.2503   -0.5096 C.ar      1 <0>        -0.1579
     14 F1          5.3859   -1.0066   -0.5907 F         1 <0>        -0.1260
     15 F2          4.5563   -4.3386   -3.8550 F         1 <0>        -0.1258
     16 C11        -1.2181   -3.0774   -0.4285 C.3       1 <0>         0.0694
     17 H2         -1.2128   -2.9373    0.6525 H         1 <0>         0.1465
     18 C12        -2.3107   -2.2053   -1.0503 C.3       1 <0>        -0.0503
     19 N2         -3.5998   -2.5076   -0.4141 N.4       1 <0>        -0.4903
     20 C13        -4.6677   -1.7612   -1.0927 C.3       1 <0>         0.1210
     21 C14        -6.0034   -2.0314   -0.3946 C.3       1 <0>        -0.1360
     22 C15        -5.9269   -1.5271    1.0492 C.3       1 <0>        -0.1370
     23 C16        -5.5836   -0.0358    1.0459 C.3       1 <0>         0.3016
     24 H3         -5.5143    0.3232    2.0727 H         1 <0>         0.1234
     25 N3         -4.2974    0.1702    0.3678 N.3       1 <0>        -0.6968
     26 C17        -4.3608   -0.2631   -1.0339 C.3       1 <0>         0.0352
     27 N4         -6.6317    0.7049    0.3395 N.pl3     1 <0>        -0.7480
     28 C18        -7.1114    1.8999    0.8629 C.ar      1 <0>         0.3900
     29 C19        -6.5035    2.4545    1.9849 C.ar      1 <0>        -0.2398
     30 C20        -6.9910    3.6439    2.4952 C.ar      1 <0>        -0.0313
     31 C21        -8.0744    4.2413    1.8641 C.ar      1 <0>        -0.2180
     32 C22        -8.6288    3.6356    0.7547 C.ar      1 <0>         0.1495
     33 N5         -8.1393    2.5031    0.2863 N.ar      1 <0>        -0.5381
     34 C23        -4.7531   -2.2012   -2.5315 C.ar      1 <0>        -0.1243
     35 C24        -4.3454   -3.4725   -2.8910 C.ar      1 <0>        -0.1380
     36 C25        -4.4237   -3.8760   -4.2106 C.ar      1 <0>        -0.0946
     37 C26        -4.9101   -3.0085   -5.1711 C.ar      1 <0>        -0.0976
     38 C27        -5.3185   -1.7380   -4.8116 C.ar      1 <0>        -0.0437
     39 C28        -5.2442   -1.3358   -3.4909 C.ar      1 <0>        -0.0893
     40 C29        -5.8482   -0.7923   -5.8585 C.3       1 <0>        -0.0346
     41 C30        -5.8280   -1.4809   -7.2247 C.3       1 <0>        -0.1511
     42 C31        -7.2838   -0.3960   -5.5083 C.3       1 <0>        -0.1422
     43 C32        -4.9704    0.4600   -5.9056 C.3       1 <0>        -0.1404
     44 O2         -1.4756   -4.4504   -0.7296 O.3       1 <0>        -0.5434
     45 H4          1.8057    0.7450    1.0042 H         1 <0>         0.1006
     46 H5          0.3441    1.2164    0.1043 H         1 <0>         0.0821
     47 H6          0.2400    0.8544    1.8439 H         1 <0>         0.0998
     48 H7          0.5430   -0.6316   -1.4116 H         1 <0>         0.4106
     49 H8          1.3001   -3.3423    0.6888 H         1 <0>         0.1085
     50 H9          0.9920   -4.5995   -0.5329 H         1 <0>         0.1010
     51 H10         2.3155   -4.7063   -2.5666 H         1 <0>         0.1428
     52 H11         5.9348   -2.4470   -2.6980 H         1 <0>         0.1520
     53 H12         3.0581   -1.7009    0.3661 H         1 <0>         0.1361
     54 H13        -2.0675   -1.1539   -0.8970 H         1 <0>         0.1431
     55 H14        -2.3757   -2.4112   -2.1188 H         1 <0>         0.1363
     56 H15        -3.7850   -3.4971   -0.4829 H         1 <0>         0.4249
     57 H16        -6.8020   -1.5088   -0.9212 H         1 <0>         0.1100
     58 H17        -6.2050   -3.1026   -0.3960 H         1 <0>         0.0993
     59 H18        -6.8890   -1.6780    1.5388 H         1 <0>         0.1068
     60 H19        -5.1544   -2.0773    1.5864 H         1 <0>         0.0831
     61 H20        -4.0029    1.1329    0.4357 H         1 <0>         0.3716
     62 H21        -3.4035   -0.0692   -1.5176 H         1 <0>         0.1023
     63 H22        -5.1465    0.2891   -1.5496 H         1 <0>         0.0861
     64 H23        -6.9910    0.3614   -0.4935 H         1 <0>         0.3985
     65 H24        -5.6626    1.9627    2.4512 H         1 <0>         0.1297
     66 H25        -6.5397    4.0977    3.3651 H         1 <0>         0.1369
     67 H26        -8.4791    5.1702    2.2378 H         1 <0>         0.1374
     68 H27        -9.4716    4.0966    0.2611 H         1 <0>         0.1599
     69 H28        -3.9655   -4.1501   -2.1407 H         1 <0>         0.1177
     70 H29        -4.1046   -4.8688   -4.4915 H         1 <0>         0.1366
     71 H30        -4.9706   -3.3236   -6.2023 H         1 <0>         0.1400
     72 H31        -5.5668   -0.3444   -3.2093 H         1 <0>         0.1305
     73 H32        -6.4533   -2.3730   -7.1912 H         1 <0>         0.0619
     74 H33        -6.2112   -0.7969   -7.9820 H         1 <0>         0.0673
     75 H34        -4.8052   -1.7632   -7.4742 H         1 <0>         0.0612
     76 H35        -7.2982    0.0945   -4.5350 H         1 <0>         0.0553
     77 H36        -7.6670    0.2880   -6.2655 H         1 <0>         0.0676
     78 H37        -7.9092   -1.2882   -5.4748 H         1 <0>         0.0597
     79 H38        -3.9476    0.1776   -6.1551 H         1 <0>         0.0583
     80 H39        -5.3536    1.1440   -6.6628 H         1 <0>         0.0675
     81 H40        -4.9848    0.9505   -4.9323 H         1 <0>         0.0540
     82 H41        -1.4948   -4.6486   -1.6759 H         1 <0>         0.3855
     83 H42        -3.5666   -2.2384    0.5577 H         1 <0>         0.4346
@<TRIPOS>BOND
     1    1    2 1
     2    1   45 1
     3    1   46 1
     4    1   47 1
     5    2    3 2
     6    2    4 am
     7    4    5 1
     8    4   48 1
     9    5    6 1
    10    5    7 1
    11    5   16 1
    12    7    8 1
    13    7   49 1
    14    7   50 1
    15    8   13 ar
    16    8    9 ar
    17    9   10 ar
    18    9   51 1
    19   10   11 ar
    20   10   15 1
    21   11   12 ar
    22   11   52 1
    23   12   13 ar
    24   12   14 1
    25   13   53 1
    26   16   17 1
    27   16   18 1
    28   16   44 1
    29   18   19 1
    30   18   54 1
    31   18   55 1
    32   19   20 1
    33   19   56 1
    34   19   83 1
    35   20   26 1
    36   20   21 1
    37   20   34 1
    38   21   22 1
    39   21   57 1
    40   21   58 1
    41   22   23 1
    42   22   59 1
    43   22   60 1
    44   23   24 1
    45   23   25 1
    46   23   27 1
    47   25   26 1
    48   25   61 1
    49   26   62 1
    50   26   63 1
    51   27   28 1
    52   27   64 1
    53   28   33 ar
    54   28   29 ar
    55   29   30 ar
    56   29   65 1
    57   30   31 ar
    58   30   66 1
    59   31   32 ar
    60   31   67 1
    61   32   33 ar
    62   32   68 1
    63   34   39 ar
    64   34   35 ar
    65   35   36 ar
    66   35   69 1
    67   36   37 ar
    68   36   70 1
    69   37   38 ar
    70   37   71 1
    71   38   39 ar
    72   38   40 1
    73   39   72 1
    74   40   41 1
    75   40   42 1
    76   40   43 1
    77   41   73 1
    78   41   74 1
    79   41   75 1
    80   42   76 1
    81   42   77 1
    82   42   78 1
    83   43   79 1
    84   43   80 1
    85   43   81 1
    86   44   82 1
@<TRIPOS>MOLECULE
CHEMBL1092000
   53    57     0     0     0
SMALL
USER_CHARGES

@<TRIPOS>ATOM
      1 C1          0.3917    1.8166   -0.0402 C.ar      1 <0>        -0.1117
      2 C2          1.0156    2.3267   -1.1653 C.ar      1 <0>        -0.1075
      3 C3          1.7229    1.4910   -2.0108 C.ar      1 <0>        -0.1120
      4 C4          1.8103    0.1404   -1.7369 C.ar      1 <0>        -0.0081
      5 C5          1.1827   -0.3806   -0.6027 C.ar      1 <0>         0.0152
      6 C6          0.4710    0.4696    0.2459 C.ar      1 <0>        -0.1041
      7 C7          1.2711   -1.8247   -0.3029 C.2       1 <0>         0.0776
      8 C8          2.4165   -2.5652   -0.2609 C.2       1 <0>        -0.1645
      9 C9          2.0595   -3.8804    0.0565 C.2       1 <0>        -0.1651
     10 C10         0.7030   -3.9170    0.2021 C.2       1 <0>         0.0522
     11 N1          0.2162   -2.6529   -0.0126 N.pl3     1 <0>        -0.4176
     12 C11        -1.1922   -2.2549    0.0531 C.3       1 <0>         0.1449
     13 C12        -1.7770   -2.2464   -1.3358 C.ar      1 <0>         0.1525
     14 C13        -2.9466   -2.9358   -1.5868 C.ar      1 <0>        -0.2290
     15 C14        -3.4810   -2.9245   -2.8682 C.ar      1 <0>        -0.0276
     16 C15        -2.8168   -2.2174   -3.8543 C.ar      1 <0>        -0.2338
     17 C16        -1.6427   -1.5454   -3.5306 C.ar      1 <0>         0.4132
     18 N2         -1.1677   -1.5758   -2.2948 N.ar      1 <0>        -0.5125
     19 N3         -0.9648   -0.8313   -4.5118 N.pl3     1 <0>        -0.8481
     20 C17        -0.1010   -5.1101    0.5384 C.ar      1 <0>        -0.0045
     21 C18        -1.4154   -5.2207    0.0799 C.ar      1 <0>        -0.1245
     22 C19        -2.1621   -6.3354    0.3959 C.ar      1 <0>        -0.1067
     23 C20        -1.6089   -7.3478    1.1692 C.ar      1 <0>         0.0852
     24 C21        -0.3021   -7.2417    1.6273 C.ar      1 <0>        -0.1049
     25 C22         0.4533   -6.1329    1.3109 C.ar      1 <0>        -0.0876
     26 O1         -2.3485   -8.4448    1.4789 O.3       1 <0>        -0.2395
     27 C23        -2.5410   -9.3768    0.5121 C.ar      1 <0>         0.2679
     28 C24        -3.3791  -10.4622    0.7470 C.ar      1 <0>         0.0481
     29 N4         -3.5644  -11.3668   -0.1959 N.ar      1 <0>        -0.4030
     30 C25        -2.9546  -11.2421   -1.3627 C.ar      1 <0>         0.0097
     31 C26        -2.1212  -10.1653   -1.5988 C.ar      1 <0>         0.0946
     32 N5         -1.9355   -9.2525   -0.6602 N.ar      1 <0>        -0.4825
     33 Cl1         2.6973   -0.9075   -2.7994 Cl        1 <0>        -0.0586
     34 H1         -0.1550    2.4757    0.6179 H         1 <0>         0.1280
     35 H2          0.9497    3.3821   -1.3844 H         1 <0>         0.1302
     36 H3          2.2074    1.8956   -2.8871 H         1 <0>         0.1330
     37 H4         -0.0163    0.0734    1.1246 H         1 <0>         0.1249
     38 H5          3.4176   -2.2019   -0.4406 H         1 <0>         0.1392
     39 H6          2.7353   -4.7157    0.1662 H         1 <0>         0.1404
     40 H7         -1.7411   -2.9627    0.6742 H         1 <0>         0.1120
     41 H8         -1.2680   -1.2572    0.4854 H         1 <0>         0.1073
     42 H9         -3.4406   -3.4786   -0.7945 H         1 <0>         0.1330
     43 H10        -4.3945   -3.4562   -3.0902 H         1 <0>         0.1356
     44 H11        -3.2043   -2.1877   -4.8620 H         1 <0>         0.1315
     45 H12        -1.3108   -0.8031   -5.4175 H         1 <0>         0.4085
     46 H13        -0.1457   -0.3611   -4.2907 H         1 <0>         0.4041
     47 H14        -1.8464   -4.4338   -0.5213 H         1 <0>         0.1391
     48 H15        -3.1788   -6.4216    0.0420 H         1 <0>         0.1257
     49 H16         0.1242   -8.0310    2.2287 H         1 <0>         0.1337
     50 H17         1.4710   -6.0534    1.6635 H         1 <0>         0.1374
     51 H18        -3.8770  -10.5646    1.6999 H         1 <0>         0.1788
     52 H19        -3.1080  -11.9837   -2.1327 H         1 <0>         0.1755
     53 H20        -1.6245  -10.0668   -2.5527 H         1 <0>         0.1746
@<TRIPOS>BOND
     1    1    6 ar
     2    1    2 ar
     3    1   34 1
     4    2    3 ar
     5    2   35 1
     6    3    4 ar
     7    3   36 1
     8    4    5 ar
     9    4   33 1
    10    5    6 ar
    11    5    7 1
    12    6   37 1
    13    7   11 1
    14    7    8 2
    15    8    9 1
    16    8   38 1
    17    9   10 2
    18    9   39 1
    19   10   11 1
    20   10   20 1
    21   11   12 1
    22   12   13 1
    23   12   40 1
    24   12   41 1
    25   13   18 ar
    26   13   14 ar
    27   14   15 ar
    28   14   42 1
    29   15   16 ar
    30   15   43 1
    31   16   17 ar
    32   16   44 1
    33   17   18 ar
    34   17   19 1
    35   19   45 1
    36   19   46 1
    37   20   25 ar
    38   20   21 ar
    39   21   22 ar
    40   21   47 1
    41   22   23 ar
    42   22   48 1
    43   23   24 ar
    44   23   26 1
    45   24   25 ar
    46   24   49 1
    47   25   50 1
    48   26   27 1
    49   27   32 ar
    50   27   28 ar
    51   28   29 ar
    52   28   51 1
    53   29   30 ar
    54   30   31 ar
    55   30   52 1
    56   31   32 ar
    57   31   53 1
@<TRIPOS>MOLECULE
CHEMBL1092912
   53    57     0     0     0
SMALL
USER_CHARGES

@<TRIPOS>ATOM
      1 C1          0.3912    1.8164   -0.0422 C.ar      1 <0>        -0.1119
      2 C2          1.0158    2.3258   -1.1672 C.ar      1 <0>        -0.1078
      3 C3          1.7232    1.4896   -2.0120 C.ar      1 <0>        -0.1120
      4 C4          1.8105    0.1391   -1.7373 C.ar      1 <0>        -0.0082
      5 C5          1.1822   -0.3812   -0.6031 C.ar      1 <0>         0.0156
      6 C6          0.4701    0.4695    0.2446 C.ar      1 <0>        -0.1041
      7 C7          1.2709   -1.8250   -0.3022 C.2       1 <0>         0.0773
      8 C8          2.4165   -2.5651   -0.2588 C.2       1 <0>        -0.1645
      9 C9          2.0598   -3.8800    0.0600 C.2       1 <0>        -0.1644
     10 C10         0.7033   -3.9169    0.2049 C.2       1 <0>         0.0523
     11 N1          0.2161   -2.6533   -0.0119 N.pl3     1 <0>        -0.4177
     12 C11        -1.1924   -2.2557    0.0528 C.3       1 <0>         0.1451
     13 C12        -1.7766   -2.2483   -1.3363 C.ar      1 <0>         0.1521
     14 C13        -2.9458   -2.9383   -1.5875 C.ar      1 <0>        -0.2288
     15 C14        -3.4796   -2.9281   -2.8691 C.ar      1 <0>        -0.0274
     16 C15        -2.8151   -2.2213   -3.8554 C.ar      1 <0>        -0.2335
     17 C16        -1.6414   -1.5487   -3.5315 C.ar      1 <0>         0.4132
     18 N2         -1.1670   -1.5781   -2.2955 N.ar      1 <0>        -0.5125
     19 N3         -0.9633   -0.8350   -4.5129 N.pl3     1 <0>        -0.8482
     20 C17        -0.1005   -5.1100    0.5418 C.ar      1 <0>        -0.0029
     21 C18        -1.4147   -5.2213    0.0830 C.ar      1 <0>        -0.1236
     22 C19        -2.1612   -6.3360    0.3996 C.ar      1 <0>        -0.1053
     23 C20        -1.6080   -7.3476    1.1738 C.ar      1 <0>         0.0812
     24 C21        -0.3015   -7.2407    1.6325 C.ar      1 <0>        -0.1034
     25 C22         0.4538   -6.1322    1.3152 C.ar      1 <0>        -0.0874
     26 O1         -2.3472   -8.4448    1.4837 O.3       1 <0>        -0.2402
     27 C23        -2.5389   -9.3775    0.5171 C.ar      1 <0>         0.2558
     28 C24        -3.3772  -10.4650    0.7510 C.ar      1 <0>        -0.1308
     29 C25        -3.5403  -11.3900   -0.2687 C.ar      1 <0>        -0.0840
     30 C26        -2.8589  -11.1758   -1.4584 C.ar      1 <0>         0.0107
     31 N4         -2.0849  -10.1172   -1.5927 N.ar      1 <0>        -0.2047
     32 N5         -1.9342   -9.2550   -0.6539 N.ar      1 <0>        -0.2843
     33 Cl1         2.6982   -0.9093   -2.7987 Cl        1 <0>        -0.0581
     34 H1         -0.1557    2.4759    0.6154 H         1 <0>         0.1278
     35 H2          0.9502    3.3812   -1.3868 H         1 <0>         0.1300
     36 H3          2.2079    1.8937   -2.8885 H         1 <0>         0.1329
     37 H4         -0.0177    0.0739    1.1232 H         1 <0>         0.1248
     38 H5          3.4176   -2.2016   -0.4383 H         1 <0>         0.1392
     39 H6          2.7358   -4.7150    0.1709 H         1 <0>         0.1408
     40 H7         -1.7415   -2.9633    0.6741 H         1 <0>         0.1119
     41 H8         -1.2688   -1.2577    0.4844 H         1 <0>         0.1072
     42 H9         -3.4400   -3.4808   -0.7951 H         1 <0>         0.1329
     43 H10        -4.3928   -3.4602   -3.0912 H         1 <0>         0.1355
     44 H11        -3.2022   -2.1924   -4.8633 H         1 <0>         0.1315
     45 H12        -1.3089   -0.8075   -5.4188 H         1 <0>         0.4084
     46 H13        -0.1444   -0.3643   -4.2917 H         1 <0>         0.4040
     47 H14        -1.8458   -4.4348   -0.5188 H         1 <0>         0.1396
     48 H15        -3.1778   -6.4226    0.0455 H         1 <0>         0.1262
     49 H16         0.1247   -8.0293    2.2349 H         1 <0>         0.1339
     50 H17         1.4715   -6.0522    1.6680 H         1 <0>         0.1380
     51 H18        -3.8841  -10.5841    1.6972 H         1 <0>         0.1591
     52 H19        -4.1784  -12.2519   -0.1408 H         1 <0>         0.1604
     53 H20        -2.9623  -11.8763   -2.2739 H         1 <0>         0.1782
@<TRIPOS>BOND
     1    1    6 ar
     2    1    2 ar
     3    1   34 1
     4    2    3 ar
     5    2   35 1
     6    3    4 ar
     7    3   36 1
     8    4    5 ar
     9    4   33 1
    10    5    6 ar
    11    5    7 1
    12    6   37 1
    13    7   11 1
    14    7    8 2
    15    8    9 1
    16    8   38 1
    17    9   10 2
    18    9   39 1
    19   10   11 1
    20   10   20 1
    21   11   12 1
    22   12   13 1
    23   12   40 1
    24   12   41 1
    25   13   18 ar
    26   13   14 ar
    27   14   15 ar
    28   14   42 1
    29   15   16 ar
    30   15   43 1
    31   16   17 ar
    32   16   44 1
    33   17   18 ar
    34   17   19 1
    35   19   45 1
    36   19   46 1
    37   20   25 ar
    38   20   21 ar
    39   21   22 ar
    40   21   47 1
    41   22   23 ar
    42   22   48 1
    43   23   24 ar
    44   23   26 1
    45   24   25 ar
    46   24   49 1
    47   25   50 1
    48   26   27 1
    49   27   32 ar
    50   27   28 ar
    51   28   29 ar
    52   28   51 1
    53   29   30 ar
    54   29   52 1
    55   30   31 ar
    56   30   53 1
    57   31   32 ar
@<TRIPOS>MOLECULE
CHEMBL1092913
   52    56     0     0     0
SMALL
USER_CHARGES

@<TRIPOS>ATOM
      1 C1          0.4023    1.8122   -0.0442 C.ar      1 <0>        -0.1117
      2 C2          1.0280    2.3204   -1.1692 C.ar      1 <0>        -0.1070
      3 C3          1.7344    1.4828   -2.0135 C.ar      1 <0>        -0.1119
      4 C4          1.8201    0.1324   -1.7381 C.ar      1 <0>        -0.0078
      5 C5          1.1910   -0.3866   -0.6037 C.ar      1 <0>         0.0140
      6 C6          0.4795    0.4654    0.2433 C.ar      1 <0>        -0.1037
      7 C7          1.2775   -1.8304   -0.3022 C.2       1 <0>         0.0805
      8 C8          2.4220   -2.5721   -0.2586 C.2       1 <0>        -0.1651
      9 C9          2.0633   -3.8866    0.0601 C.2       1 <0>        -0.1622
     10 C10         0.7066   -3.9215    0.2048 C.2       1 <0>         0.0480
     11 N1          0.2215   -2.6570   -0.0117 N.pl3     1 <0>        -0.4173
     12 C11        -1.1865   -2.2573    0.0525 C.3       1 <0>         0.1445
     13 C12        -1.7704   -2.2498   -1.3368 C.ar      1 <0>         0.1516
     14 C13        -2.9406   -2.9383   -1.5878 C.ar      1 <0>        -0.2296
     15 C14        -3.4740   -2.9279   -2.8696 C.ar      1 <0>        -0.0270
     16 C15        -2.8082   -2.2227   -3.8562 C.ar      1 <0>        -0.2335
     17 C16        -1.6337   -1.5516   -3.5324 C.ar      1 <0>         0.4133
     18 N2         -1.1596   -1.5811   -2.2962 N.ar      1 <0>        -0.5128
     19 N3         -0.9543   -0.8395   -4.5140 N.pl3     1 <0>        -0.8481
     20 C17        -0.0989   -5.1132    0.5423 C.ar      1 <0>         0.0016
     21 C18        -1.4131   -5.2229    0.0829 C.ar      1 <0>        -0.1251
     22 C19        -2.1613   -6.3362    0.4000 C.ar      1 <0>        -0.1132
     23 C20        -1.6100   -7.3480    1.1758 C.ar      1 <0>         0.0593
     24 C21        -0.3031   -7.2426    1.6347 C.ar      1 <0>        -0.1021
     25 C22         0.4537   -6.1354    1.3168 C.ar      1 <0>        -0.0883
     26 O1         -2.3510   -8.4433    1.4869 O.3       1 <0>        -0.2029
     27 C23        -2.5449   -9.3778    0.5200 C.2       1 <0>         0.0505
     28 C24        -3.3165  -10.4982    0.5533 C.2       1 <0>        -0.2027
     29 C25        -3.3605  -11.3113   -0.5651 C.2       1 <0>        -0.1237
     30 C26        -2.6361  -10.9685   -1.6568 C.2       1 <0>        -0.1883
     31 S1         -1.8598   -9.4508   -1.1269 S.3       1 <0>         0.0217
     32 Cl1         2.7065   -0.9177   -2.7988 Cl        1 <0>        -0.0583
     33 H1         -0.1441    2.4727    0.6128 H         1 <0>         0.1282
     34 H2          0.9640    3.3758   -1.3892 H         1 <0>         0.1304
     35 H3          2.2197    1.8858   -2.8902 H         1 <0>         0.1331
     36 H4         -0.0091    0.0708    1.1219 H         1 <0>         0.1249
     37 H5          3.4237   -2.2102   -0.4379 H         1 <0>         0.1398
     38 H6          2.7380   -4.7225    0.1712 H         1 <0>         0.1412
     39 H7         -1.7367   -2.9637    0.6740 H         1 <0>         0.1119
     40 H8         -1.2615   -1.2590    0.4835 H         1 <0>         0.1078
     41 H9         -3.4357   -3.4796   -0.7953 H         1 <0>         0.1334
     42 H10        -4.3879   -3.4588   -3.0916 H         1 <0>         0.1364
     43 H11        -3.1951   -2.1939   -4.8641 H         1 <0>         0.1318
     44 H12        -1.2996   -0.8121   -5.4200 H         1 <0>         0.4086
     45 H13        -0.1348   -0.3699   -4.2929 H         1 <0>         0.4040
     46 H14        -1.8428   -4.4364   -0.5197 H         1 <0>         0.1421
     47 H15        -3.1778   -6.4219    0.0451 H         1 <0>         0.1334
     48 H16         0.1219   -8.0314    2.2376 H         1 <0>         0.1387
     49 H17         1.4712   -6.0563    1.6703 H         1 <0>         0.1406
     50 H18        -3.8842  -10.7484    1.4373 H         1 <0>         0.1410
     51 H19        -3.9639  -12.2071   -0.5675 H         1 <0>         0.1411
     52 H20        -2.5528  -11.4792   -2.6047 H         1 <0>         0.1886
@<TRIPOS>BOND
     1    1    6 ar
     2    1    2 ar
     3    1   33 1
     4    2    3 ar
     5    2   34 1
     6    3    4 ar
     7    3   35 1
     8    4    5 ar
     9    4   32 1
    10    5    6 ar
    11    5    7 1
    12    6   36 1
    13    7   11 1
    14    7    8 2
    15    8    9 1
    16    8   37 1
    17    9   10 2
    18    9   38 1
    19   10   11 1
    20   10   20 1
    21   11   12 1
    22   12   13 1
    23   12   39 1
    24   12   40 1
    25   13   18 ar
    26   13   14 ar
    27   14   15 ar
    28   14   41 1
    29   15   16 ar
    30   15   42 1
    31   16   17 ar
    32   16   43 1
    33   17   18 ar
    34   17   19 1
    35   19   44 1
    36   19   45 1
    37   20   25 ar
    38   20   21 ar
    39   21   22 ar
    40   21   46 1
    41   22   23 ar
    42   22   47 1
    43   23   24 ar
    44   23   26 1
    45   24   25 ar
    46   24   48 1
    47   25   49 1
    48   26   27 1
    49   27   31 1
    50   27   28 2
    51   28   29 1
    52   28   50 1
    53   29   30 2
    54   29   51 1
    55   30   31 1
    56   30   52 1
@<TRIPOS>MOLECULE
CHEMBL377548
   84    84     0     0     0
SMALL
USER_CHARGES

@<TRIPOS>ATOM
      1 C1         -2.2074    0.5582   -9.4101 C.3       1 <0>        -0.1533
      2 C2         -1.6654   -0.8602   -9.5976 C.3       1 <0>        -0.1220
      3 C3         -0.8169   -1.2465   -8.3844 C.3       1 <0>        -0.1323
      4 C4         -0.2750   -2.6649   -8.5719 C.3       1 <0>         0.1170
      5 N1          0.5374   -3.0348   -7.4102 N.am      1 <0>        -0.7318
      6 C5          1.1208   -4.2485   -7.3548 C.2       1 <0>         0.5151
      7 O1          0.9733   -5.0345   -8.2666 O.2       1 <0>        -0.5406
      8 C6          1.9565   -4.6289   -6.1598 C.3       1 <0>        -0.1052
      9 H1          1.3425   -4.5905   -5.2600 H         1 <0>         0.0971
     10 C7          3.1248   -3.6506   -6.0222 C.3       1 <0>        -0.1504
     11 C8          2.4985   -6.0474   -6.3473 C.3       1 <0>        -0.1317
     12 C9          3.2215   -6.4896   -5.0734 C.3       1 <0>         0.0966
     13 H2          2.5616   -6.3562   -4.2162 H         1 <0>         0.1204
     14 C10         3.6100   -7.9646   -5.1934 C.3       1 <0>         0.1208
     15 H3          4.0805   -8.2950   -4.2674 H         1 <0>         0.0990
     16 C11         4.5862   -8.1449   -6.3575 C.3       1 <0>         0.0428
     17 O2          4.4758   -9.4739   -6.8709 O.3       1 <0>        -0.3750
     18 C12         5.1793   -9.6831   -8.0971 C.3       1 <0>         0.0912
     19 C13         4.3051  -10.4523   -9.0535 C.2       1 <0>        -0.1741
     20 C14         3.8508  -11.6348   -8.7198 C.2       1 <0>        -0.1244
     21 C15         2.9774  -12.4039   -9.6772 C.3       1 <0>        -0.0695
     22 S1          1.9813  -13.6067   -8.7544 S.3       1 <0>        -0.2179
     23 C16         0.4937  -12.6791   -8.2886 C.3       1 <0>        -0.0963
     24 C17         0.2482  -12.8300   -6.7860 C.3       1 <0>         0.1605
     25 H4          1.1418  -13.2347   -6.3107 H         1 <0>         0.1265
     26 C18        -0.0704  -11.4824   -6.1914 C.2       1 <0>         0.5107
     27 O3         -0.9584  -10.7957   -6.6505 O.2       1 <0>        -0.5158
     28 N2          0.6668  -11.0511   -5.1189 N.am      1 <0>        -0.7158
     29 C19         0.2753   -9.7122   -4.6096 C.3       1 <0>         0.1119
     30 H5         -0.3778   -9.2214   -5.3311 H         1 <0>         0.1292
     31 C20         1.5258   -8.8932   -4.4174 C.2       1 <0>         0.5073
     32 O4          1.7492   -8.3484   -3.3572 O.2       1 <0>        -0.5209
     33 N3          2.4013   -8.7761   -5.4524 N.am      1 <0>        -0.7077
     34 C21        -0.4540   -9.8623   -3.2730 C.3       1 <0>        -0.1435
     35 N4         -0.8779  -13.7403   -6.5641 N.am      1 <0>        -0.6955
     36 C22        -0.9769  -14.4196   -5.4042 C.2       1 <0>         0.6547
     37 O5         -0.1321  -14.2769   -4.5426 O.2       1 <0>        -0.5570
     38 O6         -2.0119  -15.2562   -5.2002 O.3       1 <0>        -0.3540
     39 C23        -2.0535  -15.9435   -3.9481 C.3       1 <0>         0.1350
     40 C24        -2.1180  -14.9244   -2.8088 C.3       1 <0>        -0.1859
     41 C25        -3.2914  -16.8413   -3.9000 C.3       1 <0>        -0.1414
     42 C26        -0.7955  -16.8008   -3.7948 C.3       1 <0>        -0.1860
     43 O7          4.3990   -5.6998   -4.8955 O.3       1 <0>        -0.5464
     44 H6         -2.8213    0.5966   -8.5103 H         1 <0>         0.0549
     45 H7         -1.3751    1.2552   -9.3121 H         1 <0>         0.0546
     46 H8         -2.8118    0.8334  -10.2745 H         1 <0>         0.0569
     47 H9         -2.4977   -1.5572   -9.6957 H         1 <0>         0.0653
     48 H10        -1.0514   -0.8986  -10.4974 H         1 <0>         0.0650
     49 H11         0.0154   -0.5495   -8.2864 H         1 <0>         0.0692
     50 H12        -1.4309   -1.2081   -7.4846 H         1 <0>         0.0694
     51 H13        -1.1073   -3.3619   -8.6699 H         1 <0>         0.0670
     52 H14         0.3390   -2.7033   -9.4717 H         1 <0>         0.0666
     53 H15         0.6555   -2.4062   -6.6810 H         1 <0>         0.4009
     54 H16         3.8106   -3.7836   -6.8589 H         1 <0>         0.0552
     55 H17         2.7451   -2.6289   -6.0225 H         1 <0>         0.0518
     56 H18         3.6511   -3.8424   -5.0871 H         1 <0>         0.0961
     57 H19         1.6720   -6.7282   -6.5509 H         1 <0>         0.0825
     58 H20         3.1961   -6.0621   -7.1847 H         1 <0>         0.0729
     59 H21         4.3480   -7.4302   -7.1453 H         1 <0>         0.0629
     60 H22         5.6042   -7.9739   -6.0077 H         1 <0>         0.0682
     61 H23         5.4382   -8.7196   -8.5363 H         1 <0>         0.0633
     62 H24         6.0898  -10.2495   -7.9014 H         1 <0>         0.0744
     63 H25         4.0525  -10.0286  -10.0144 H         1 <0>         0.1162
     64 H26         4.1019  -12.0584   -7.7586 H         1 <0>         0.1271
     65 H27         2.3180  -11.7129  -10.2025 H         1 <0>         0.0957
     66 H28         3.6035  -12.9283  -10.3991 H         1 <0>         0.1204
     67 H29         0.6321  -11.6253   -8.5302 H         1 <0>         0.1080
     68 H30        -0.3638  -13.0681   -8.8377 H         1 <0>         0.1132
     69 H31         1.3825  -11.5754   -4.7267 H         1 <0>         0.4204
     70 H32         2.2395   -9.1989   -6.3103 H         1 <0>         0.4149
     71 H33         0.2054  -10.3448   -2.5515 H         1 <0>         0.0667
     72 H34        -0.7397   -8.8778   -2.9024 H         1 <0>         0.0764
     73 H35        -1.3472  -10.4711   -3.4128 H         1 <0>         0.0649
     74 H36        -1.5523  -13.8542   -7.2519 H         1 <0>         0.4137
     75 H37        -3.0142  -14.3136   -2.9180 H         1 <0>         0.0590
     76 H38        -2.1498  -15.4486   -1.8537 H         1 <0>         0.0713
     77 H39        -1.2361  -14.2847   -2.8430 H         1 <0>         0.0876
     78 H40        -3.2454  -17.5674   -4.7116 H         1 <0>         0.0674
     79 H41        -3.3231  -17.3656   -2.9449 H         1 <0>         0.0819
     80 H42        -4.1876  -16.2306   -4.0092 H         1 <0>         0.0669
     81 H43         0.0865  -16.1612   -3.8291 H         1 <0>         0.0882
     82 H44        -0.8272  -17.3251   -2.8397 H         1 <0>         0.0711
     83 H45        -0.7495  -17.5269   -4.6065 H         1 <0>         0.0600
     84 H46         5.0330   -5.7697   -5.6223 H         1 <0>         0.3700
@<TRIPOS>BOND
     1    1    2 1
     2    1   44 1
     3    1   45 1
     4    1   46 1
     5    2    3 1
     6    2   47 1
     7    2   48 1
     8    3    4 1
     9    3   49 1
    10    3   50 1
    11    4    5 1
    12    4   51 1
    13    4   52 1
    14    5    6 am
    15    5   53 1
    16    6    7 2
    17    6    8 1
    18    8    9 1
    19    8   10 1
    20    8   11 1
    21   10   54 1
    22   10   55 1
    23   10   56 1
    24   11   12 1
    25   11   57 1
    26   11   58 1
    27   12   13 1
    28   12   14 1
    29   12   43 1
    30   14   15 1
    31   14   33 1
    32   14   16 1
    33   16   17 1
    34   16   59 1
    35   16   60 1
    36   17   18 1
    37   18   19 1
    38   18   61 1
    39   18   62 1
    40   19   20 2
    41   19   63 1
    42   20   21 1
    43   20   64 1
    44   21   22 1
    45   21   65 1
    46   21   66 1
    47   22   23 1
    48   23   24 1
    49   23   67 1
    50   23   68 1
    51   24   25 1
    52   24   26 1
    53   24   35 1
    54   26   27 2
    55   26   28 am
    56   28   29 1
    57   28   69 1
    58   29   30 1
    59   29   31 1
    60   29   34 1
    61   31   32 2
    62   31   33 am
    63   33   70 1
    64   34   71 1
    65   34   72 1
    66   34   73 1
    67   35   36 am
    68   35   74 1
    69   36   37 2
    70   36   38 1
    71   38   39 1
    72   39   40 1
    73   39   41 1
    74   39   42 1
    75   40   75 1
    76   40   76 1
    77   40   77 1
    78   41   78 1
    79   41   79 1
    80   41   80 1
    81   42   81 1
    82   42   82 1
    83   42   83 1
    84   43   84 1
@<TRIPOS>MOLECULE
CHEMBL239857
   52    54     0     0     0
SMALL
USER_CHARGES

@<TRIPOS>ATOM
      1 C1         -0.0187    1.5258    0.0104 C.3       1 <0>        -0.1675
      2 C2          0.0021   -0.0041    0.0020 C.3       1 <0>         0.1514
      3 C3          0.7115   -0.4963   -1.2613 C.3       1 <0>        -0.1560
      4 C4          1.0001   -1.9705   -1.1208 C.2       1 <0>         0.5215
      5 O1          0.9909   -2.6925   -2.0949 O.2       1 <0>        -0.4346
      6 N1          1.2689   -2.4762    0.1005 N.am      1 <0>        -0.5587
      7 C5          1.2895   -1.6472    1.2027 C.cat     1 <0>         0.7437
      8 N2          0.7096   -0.4872    1.1872 N.pl3     1 <0>        -0.6258
      9 N3          1.9382   -2.0595    2.3421 N.pl3     1 <0>        -0.7959
     10 C6          1.5388   -3.9077    0.2565 C.3       1 <0>         0.0436
     11 C7         -1.4338   -0.5323    0.0161 C.3       1 <0>        -0.1342
     12 C8         -2.1466   -0.0382    1.2765 C.3       1 <0>        -0.0792
     13 C9         -3.5609   -0.5586    1.2904 C.ar      1 <0>        -0.0956
     14 C10        -4.5733    0.1779    0.7018 C.ar      1 <0>        -0.1101
     15 C11        -5.8734   -0.2939    0.7105 C.ar      1 <0>        -0.1086
     16 C12        -6.1675   -1.5032    1.3077 C.ar      1 <0>        -0.1026
     17 C13        -5.1518   -2.2489    1.9019 C.ar      1 <0>        -0.0378
     18 C14        -3.8427   -1.7715    1.8852 C.ar      1 <0>        -0.1058
     19 C15        -5.4620   -3.5495    2.5458 C.ar      1 <0>        -0.0128
     20 C16        -4.4463   -4.2924    3.1451 C.ar      1 <0>        -0.1513
     21 C17        -4.7372   -5.5018    3.7434 C.ar      1 <0>        -0.0762
     22 C18        -6.0345   -5.9798    3.7498 C.ar      1 <0>        -0.2041
     23 C19        -7.0514   -5.2463    3.1548 C.ar      1 <0>         0.1365
     24 C20        -6.7693   -4.0282    2.5579 C.ar      1 <0>        -0.1425
     25 O2         -8.3252   -5.7201    3.1630 O.3       1 <0>        -0.3152
     26 C21        -8.5449   -6.9794    3.8017 C.3       1 <0>         0.0252
     27 H1          1.0039    1.9031    0.0027 H         1 <0>         0.0820
     28 H2         -0.5459    1.8868   -0.8726 H         1 <0>         0.1057
     29 H3         -0.5289    1.8773    0.9072 H         1 <0>         0.0885
     30 H4          0.0705   -0.3311   -2.1272 H         1 <0>         0.1537
     31 H5          1.6472    0.0479   -1.3895 H         1 <0>         0.1355
     32 H6          2.3751   -2.9252    2.3652 H         1 <0>         0.4418
     33 H7          1.9591   -1.4847    3.1232 H         1 <0>         0.4413
     34 H8          1.4785   -4.3968   -0.7157 H         1 <0>         0.1265
     35 H9          2.5372   -4.0460    0.6716 H         1 <0>         0.0929
     36 H10         0.8016   -4.3452    0.9297 H         1 <0>         0.0972
     37 H11        -1.9626   -0.1708   -0.8658 H         1 <0>         0.1095
     38 H12        -1.4200   -1.6222    0.0101 H         1 <0>         0.0752
     39 H13        -1.6178   -0.3998    2.1584 H         1 <0>         0.0672
     40 H14        -2.1604    1.0517    1.2825 H         1 <0>         0.0890
     41 H15        -4.3478    1.1249    0.2341 H         1 <0>         0.1255
     42 H16        -6.6599    0.2851    0.2495 H         1 <0>         0.1306
     43 H17        -7.1831   -1.8703    1.3145 H         1 <0>         0.1307
     44 H18        -3.0508   -2.3477    2.3404 H         1 <0>         0.1193
     45 H19        -3.4318   -3.9220    3.1411 H         1 <0>         0.1201
     46 H20        -3.9493   -6.0764    4.2074 H         1 <0>         0.1277
     47 H21        -6.2571   -6.9268    4.2189 H         1 <0>         0.1322
     48 H22        -7.5605   -3.4541    2.0987 H         1 <0>         0.1355
     49 H23        -7.9501   -7.7468    3.3060 H         1 <0>         0.0579
     50 H24        -8.2507   -6.9119    4.8490 H         1 <0>         0.0582
     51 H25        -9.6012   -7.2403    3.7370 H         1 <0>         0.1054
     52 H26         0.7462    0.0721    1.9788 H         1 <0>         0.4437
@<TRIPOS>BOND
     1    1    2 1
     2    1   27 1
     3    1   28 1
     4    1   29 1
     5    2    8 1
     6    2    3 1
     7    2   11 1
     8    3    4 1
     9    3   30 1
    10    3   31 1
    11    4    5 2
    12    4    6 am
    13    6    7 1
    14    6   10 1
    15    7    8 2
    16    7    9 1
    17    8   52 1
    18    9   32 1
    19    9   33 1
    20   10   34 1
    21   10   35 1
    22   10   36 1
    23   11   12 1
    24   11   37 1
    25   11   38 1
    26   12   13 1
    27   12   39 1
    28   12   40 1
    29   13   18 ar
    30   13   14 ar
    31   14   15 ar
    32   14   41 1
    33   15   16 ar
    34   15   42 1
    35   16   17 ar
    36   16   43 1
    37   17   18 ar
    38   17   19 1
    39   18   44 1
    40   19   24 ar
    41   19   20 ar
    42   20   21 ar
    43   20   45 1
    44   21   22 ar
    45   21   46 1
    46   22   23 ar
    47   22   47 1
    48   23   24 ar
    49   23   25 1
    50   24   48 1
    51   25   26 1
    52   26   49 1
    53   26   50 1
    54   26   51 1
@<TRIPOS>MOLECULE
CHEMBL239857__1
   52    54     0     0     0
SMALL
USER_CHARGES

@<TRIPOS>ATOM
      1 C1         -0.0187    1.5258    0.0104 C.3       1 <0>        -0.1635
      2 C2          0.0021   -0.0041    0.0020 C.3       1 <0>         0.1692
      3 C3          0.7417   -0.5183    1.2407 C.3       1 <0>        -0.1531
      4 C4          0.4582   -1.9798    1.4452 C.2       1 <0>         0.5233
      5 O1          1.2413   -2.6392    2.0949 O.2       1 <0>        -0.4441
      6 N1         -0.6260   -2.5840    0.9377 N.am      1 <0>        -0.5509
      7 C5         -1.5198   -1.8953    0.1358 C.cat     1 <0>         0.7534
      8 N2         -1.3777   -0.5210    0.0459 N.pl3     1 <0>        -0.7073
      9 N3         -2.4613   -2.5186   -0.5124 N.pl3     1 <0>        -0.7297
     10 C6         -0.8690   -3.9973    1.2374 C.3       1 <0>         0.0305
     11 C7          0.7025   -0.5044   -1.2629 C.3       1 <0>        -0.1363
     12 C8         -0.0507   -0.0011   -2.4959 C.3       1 <0>        -0.0758
     13 C9          0.6391   -0.4939   -3.7418 C.ar      1 <0>        -0.0953
     14 C10         1.6400    0.2643   -4.3226 C.ar      1 <0>        -0.1098
     15 C11         2.2776   -0.1821   -5.4658 C.ar      1 <0>        -0.1078
     16 C12         1.9177   -1.3877   -6.0338 C.ar      1 <0>        -0.1032
     17 C13         0.9105   -2.1552   -5.4531 C.ar      1 <0>        -0.0385
     18 C14         0.2753   -1.7032   -4.2980 C.ar      1 <0>        -0.1076
     19 C15         0.5189   -3.4518   -6.0595 C.ar      1 <0>        -0.0119
     20 C16        -0.4928   -4.2166   -5.4813 C.ar      1 <0>        -0.1527
     21 C17        -0.8552   -5.4223   -6.0471 C.ar      1 <0>        -0.0764
     22 C18        -0.2169   -5.8749   -7.1868 C.ar      1 <0>        -0.2045
     23 C19         0.7918   -5.1196   -7.7685 C.ar      1 <0>         0.1376
     24 C20         1.1572   -3.9051   -7.2109 C.ar      1 <0>        -0.1427
     25 O2          1.4169   -5.5686   -8.8886 O.3       1 <0>        -0.3149
     26 C21         0.9849   -6.8258   -9.4129 C.3       1 <0>         0.0251
     27 H1          1.0039    1.9031    0.0027 H         1 <0>         0.1007
     28 H2         -0.5459    1.8868   -0.8726 H         1 <0>         0.0862
     29 H3         -0.5289    1.8773    0.9072 H         1 <0>         0.0809
     30 H4          1.8138   -0.3736    1.1071 H         1 <0>         0.1451
     31 H5          0.4087    0.0380    2.1169 H         1 <0>         0.1367
     32 H6         -2.5454   -3.4820   -0.4379 H         1 <0>         0.4455
     33 H7         -2.1457    0.0706    0.0139 H         1 <0>         0.4459
     34 H8         -0.0714   -4.3754    1.8770 H         1 <0>         0.1311
     35 H9         -1.8255   -4.1008    1.7498 H         1 <0>         0.0990
     36 H10        -0.8908   -4.5672    0.3086 H         1 <0>         0.0951
     37 H11         1.7257   -0.1294   -1.2841 H         1 <0>         0.1070
     38 H12         0.7148   -1.5943   -1.2645 H         1 <0>         0.0670
     39 H13        -1.0740   -0.3761   -2.4747 H         1 <0>         0.0666
     40 H14        -0.0631    1.0888   -2.4943 H         1 <0>         0.0892
     41 H15         1.9242    1.2084   -3.8819 H         1 <0>         0.1258
     42 H16         3.0583    0.4137   -5.9151 H         1 <0>         0.1307
     43 H17         2.4158   -1.7350   -6.9269 H         1 <0>         0.1305
     44 H18        -0.5031   -2.2964   -3.8412 H         1 <0>         0.1171
     45 H19        -0.9928   -3.8660   -4.5906 H         1 <0>         0.1188
     46 H20        -1.6393   -6.0138   -5.5980 H         1 <0>         0.1275
     47 H21        -0.5038   -6.8192   -7.6256 H         1 <0>         0.1323
     48 H22         1.9387   -3.3140   -7.6651 H         1 <0>         0.1356
     49 H23         1.1339   -7.6027   -8.6631 H         1 <0>         0.0580
     50 H24        -0.0725   -6.7678   -9.6710 H         1 <0>         0.0583
     51 H25         1.5639   -7.0658  -10.3047 H         1 <0>         0.1056
     52 H26        -3.0787   -2.0195   -1.0697 H         1 <0>         0.4507
@<TRIPOS>BOND
     1    1    2 1
     2    1   27 1
     3    1   28 1
     4    1   29 1
     5    2    3 1
     6    2   11 1
     7    2    8 1
     8    3   30 1
     9    3   31 1
    10    3    4 1
    11    4    6 am
    12    4    5 2
    13    6    7 1
    14    6   10 1
    15    7    8 1
    16    7    9 2
    17    8   33 1
    18    9   32 1
    19    9   52 1
    20   10   34 1
    21   10   35 1
    22   10   36 1
    23   11   12 1
    24   11   37 1
    25   11   38 1
    26   12   13 1
    27   12   39 1
    28   12   40 1
    29   13   18 ar
    30   13   14 ar
    31   14   15 ar
    32   14   41 1
    33   15   16 ar
    34   15   42 1
    35   16   17 ar
    36   16   43 1
    37   17   18 ar
    38   17   19 1
    39   18   44 1
    40   19   24 ar
    41   19   20 ar
    42   20   21 ar
    43   20   45 1
    44   21   22 ar
    45   21   46 1
    46   22   23 ar
    47   22   47 1
    48   23   24 ar
    49   23   25 1
    50   24   48 1
    51   25   26 1
    52   26   49 1
    53   26   50 1
    54   26   51 1
@<TRIPOS>MOLECULE
CHEMBL566603
   73    75     0     0     0
SMALL
USER_CHARGES

@<TRIPOS>ATOM
      1 C1         -0.5408    2.5777    0.6739 C.3       1 <0>        -0.1840
      2 C2         -0.7188    1.1110    0.3768 C.2       1 <0>         0.5117
      3 O1          0.2237    0.4513   -0.0071 O.2       1 <0>        -0.5306
      4 N1         -1.9254    0.5324    0.5376 N.am      1 <0>        -0.7330
      5 C3         -2.0985   -0.8933    0.2488 C.3       1 <0>         0.1327
      6 H1         -3.1337   -1.1789    0.4358 H         1 <0>         0.1057
      7 C4         -1.7520   -1.1625   -1.2169 C.3       1 <0>        -0.0987
      8 C5         -2.7409   -0.4529   -2.1054 C.ar      1 <0>        -0.0284
      9 C6         -3.9013   -1.0936   -2.4967 C.ar      1 <0>        -0.1645
     10 C7         -4.8105   -0.4426   -3.3135 C.ar      1 <0>         0.1398
     11 C8         -4.5571    0.8504   -3.7376 C.ar      1 <0>        -0.1923
     12 C9         -3.3948    1.4912   -3.3447 C.ar      1 <0>         0.1389
     13 C10        -2.4895    0.8402   -2.5237 C.ar      1 <0>        -0.1583
     14 F1         -3.1462    2.7532   -3.7579 F         1 <0>        -0.1258
     15 F2         -5.9443   -1.0695   -3.6966 F         1 <0>        -0.1255
     16 C11        -1.1727   -1.7124    1.1505 C.3       1 <0>         0.0690
     17 H2         -0.1375   -1.4268    0.9635 H         1 <0>         0.1456
     18 C12        -1.5192   -1.4432    2.6162 C.3       1 <0>        -0.0554
     19 N2         -0.5552   -2.1350    3.4823 N.4       1 <0>        -0.4953
     20 C13        -0.9599   -1.9812    4.8861 C.3       1 <0>         0.0958
     21 C14         0.0523   -2.6904    5.7893 C.3       1 <0>        -0.1283
     22 C15         1.4488   -2.1095    5.5394 C.3       1 <0>        -0.0792
     23 C16         1.3837   -0.6093    5.7331 C.2       1 <0>         0.3321
     24 N3          2.2624    0.0139    6.4460 N.2       1 <0>        -0.3437
     25 O2          2.1753    1.4178    6.6090 O.3       1 <0>        -0.3987
     26 N4          0.3438    0.0703    5.1148 N.pl3     1 <0>        -0.7847
     27 C17        -1.0093   -0.4925    5.2428 C.3       1 <0>         0.1197
     28 C18        -2.3236   -2.5908    5.0851 C.ar      1 <0>        -0.1233
     29 C19        -2.7496   -3.6160    4.2610 C.ar      1 <0>        -0.1384
     30 C20        -4.0003   -4.1751    4.4436 C.ar      1 <0>        -0.0940
     31 C21        -4.8253   -3.7095    5.4506 C.ar      1 <0>        -0.0962
     32 C22        -4.3992   -2.6853    6.2750 C.ar      1 <0>        -0.0432
     33 C23        -3.1463   -2.1290    6.0951 C.ar      1 <0>        -0.0893
     34 C24        -5.2986   -2.1776    7.3724 C.3       1 <0>        -0.0352
     35 C25        -6.6137   -2.9594    7.3566 C.3       1 <0>        -0.1513
     36 C26        -4.6093   -2.3663    8.7252 C.3       1 <0>        -0.1429
     37 C27        -5.5862   -0.6914    7.1494 C.3       1 <0>        -0.1413
     38 O3         -1.3415   -3.1031    0.8688 O.3       1 <0>        -0.5416
     39 H3          0.4944    2.8632    0.4869 H         1 <0>         0.1001
     40 H4         -1.2004    3.1612    0.0315 H         1 <0>         0.0962
     41 H5         -0.7877    2.7694    1.7181 H         1 <0>         0.0902
     42 H6         -2.6792    1.0601    0.8446 H         1 <0>         0.4116
     43 H7         -0.7471   -0.7956   -1.4260 H         1 <0>         0.1082
     44 H8         -1.7946   -2.2345   -1.4094 H         1 <0>         0.1018
     45 H9         -4.0989   -2.1024   -2.1656 H         1 <0>         0.1431
     46 H10        -5.2655    1.3587   -4.3750 H         1 <0>         0.1523
     47 H11        -1.5846    1.3416   -2.2134 H         1 <0>         0.1360
     48 H12        -1.4765   -0.3712    2.8087 H         1 <0>         0.1387
     49 H13        -2.5241   -1.8102    2.8253 H         1 <0>         0.1433
     50 H14        -0.5323   -3.1152    3.2443 H         1 <0>         0.4292
     51 H15        -0.2230   -2.5395    6.8331 H         1 <0>         0.1198
     52 H16         0.0563   -3.7569    5.5641 H         1 <0>         0.1086
     53 H17         2.1576   -2.5405    6.2464 H         1 <0>         0.1253
     54 H18         1.7631   -2.3347    4.5203 H         1 <0>         0.0922
     55 H19         2.8764    1.7942    7.1585 H         1 <0>         0.4125
     56 H20         0.5032    0.8871    4.6165 H         1 <0>         0.4168
     57 H21        -1.6859    0.0241    4.5620 H         1 <0>         0.1028
     58 H22        -1.3589   -0.3740    6.2684 H         1 <0>         0.1031
     59 H23        -2.1051   -3.9796    3.4744 H         1 <0>         0.1183
     60 H24        -4.3333   -4.9754    3.7993 H         1 <0>         0.1372
     61 H25        -5.8030   -4.1459    5.5928 H         1 <0>         0.1405
     62 H26        -2.8118   -1.3312    6.7417 H         1 <0>         0.1332
     63 H27        -6.4089   -4.0181    7.5155 H         1 <0>         0.0621
     64 H28        -7.2643   -2.5921    8.1503 H         1 <0>         0.0674
     65 H29        -7.1048   -2.8249    6.3929 H         1 <0>         0.0613
     66 H30        -3.6724   -1.8093    8.7364 H         1 <0>         0.0556
     67 H31        -5.2598   -1.9990    9.5189 H         1 <0>         0.0677
     68 H32        -4.4044   -3.4250    8.8840 H         1 <0>         0.0601
     69 H33        -6.0773   -0.5570    6.1857 H         1 <0>         0.0586
     70 H34        -6.2367   -0.3242    7.9432 H         1 <0>         0.0677
     71 H35        -4.6493   -0.1344    7.1607 H         1 <0>         0.0550
     72 H36        -2.2409   -3.4274    1.0135 H         1 <0>         0.3865
     73 H37         0.3620   -1.7354    3.3510 H         1 <0>         0.4292
@<TRIPOS>BOND
     1    1    2 1
     2    1   39 1
     3    1   40 1
     4    1   41 1
     5    2    3 2
     6    2    4 am
     7    4    5 1
     8    4   42 1
     9    5    6 1
    10    5    7 1
    11    5   16 1
    12    7    8 1
    13    7   43 1
    14    7   44 1
    15    8   13 ar
    16    8    9 ar
    17    9   10 ar
    18    9   45 1
    19   10   11 ar
    20   10   15 1
    21   11   12 ar
    22   11   46 1
    23   12   13 ar
    24   12   14 1
    25   13   47 1
    26   16   17 1
    27   16   18 1
    28   16   38 1
    29   18   19 1
    30   18   48 1
    31   18   49 1
    32   19   20 1
    33   19   50 1
    34   19   73 1
    35   20   27 1
    36   20   21 1
    37   20   28 1
    38   21   22 1
    39   21   51 1
    40   21   52 1
    41   22   23 1
    42   22   53 1
    43   22   54 1
    44   23   24 2
    45   23   26 1
    46   24   25 1
    47   25   55 1
    48   26   27 1
    49   26   56 1
    50   27   57 1
    51   27   58 1
    52   28   33 ar
    53   28   29 ar
    54   29   30 ar
    55   29   59 1
    56   30   31 ar
    57   30   60 1
    58   31   32 ar
    59   31   61 1
    60   32   33 ar
    61   32   34 1
    62   33   62 1
    63   34   35 1
    64   34   36 1
    65   34   37 1
    66   35   63 1
    67   35   64 1
    68   35   65 1
    69   36   66 1
    70   36   67 1
    71   36   68 1
    72   37   69 1
    73   37   70 1
    74   37   71 1
    75   38   72 1
@<TRIPOS>MOLECULE
CHEMBL566414
   50    54     0     0     0
SMALL
USER_CHARGES

@<TRIPOS>ATOM
      1 C1         -0.0280    1.4389    0.4084 C.3       1 <0>         0.0609
      2 N1         -0.0127   -0.0077    0.1769 N.am      1 <0>        -0.5533
      3 C2         -1.0785   -0.8145    0.3378 C.2       1 <0>         0.5432
      4 O1         -2.1910   -0.4850    0.6899 O.2       1 <0>        -0.3925
      5 C3         -0.6155   -2.2137   -0.0076 C.3       1 <0>         0.2386
      6 N2          0.8031   -2.0519   -0.3654 N.pl3     1 <0>        -0.6653
      7 C4          1.0892   -0.7151   -0.2379 C.cat     1 <0>         0.7340
      8 N3          2.2550   -0.1868   -0.4763 N.pl3     1 <0>        -0.7323
      9 C5         -1.3958   -2.7523   -1.1790 C.ar      1 <0>        -0.1074
     10 C6         -2.7773   -2.6792   -1.1806 C.ar      1 <0>        -0.0926
     11 C7         -3.4997   -3.1715   -2.2523 C.ar      1 <0>        -0.0970
     12 C8         -2.8449   -3.7385   -3.3271 C.ar      1 <0>        -0.0876
     13 C9         -1.4538   -3.8144   -3.3309 C.ar      1 <0>        -0.0248
     14 C10        -0.7307   -3.3124   -2.2506 C.ar      1 <0>        -0.0938
     15 C11        -0.7444   -4.4229   -4.4836 C.ar      1 <0>        -0.1103
     16 C12        -1.4604   -4.9195   -5.5763 C.ar      1 <0>        -0.0613
     17 C13        -0.7521   -5.4776   -6.6264 C.ar      1 <0>        -0.1616
     18 C14         0.6286   -5.5254   -6.5614 C.ar      1 <0>         0.1090
     19 N4          1.2769   -5.0488   -5.5164 N.ar      1 <0>        -0.4795
     20 C15         0.6462   -4.5032   -4.4965 C.ar      1 <0>         0.1085
     21 C16        -0.7572   -3.1245    1.1846 C.ar      1 <0>        -0.1518
     22 C17         0.3030   -3.9191    1.5806 C.ar      1 <0>        -0.0603
     23 C18         0.1800   -4.7514    2.6736 C.ar      1 <0>        -0.1324
     24 C19        -1.0145   -4.7988    3.3883 C.ar      1 <0>         0.1389
     25 C20        -2.0746   -4.0016    2.9764 C.ar      1 <0>        -0.1620
     26 C21        -1.9466   -3.1645    1.8901 C.ar      1 <0>        -0.0409
     27 C22        -3.2315   -4.2802    3.9165 C.3       1 <0>        -0.1149
     28 C23        -2.7769   -5.5893    4.6042 C.3       1 <0>         0.0489
     29 O2         -1.3451   -5.5285    4.4890 O.3       1 <0>        -0.2954
     30 H1          0.9598    1.8504    0.2012 H         1 <0>         0.0993
     31 H2         -0.7611    1.9045   -0.2503 H         1 <0>         0.1106
     32 H3         -0.2942    1.6379    1.4465 H         1 <0>         0.1108
     33 H4          2.3875    0.7674   -0.3625 H         1 <0>         0.4490
     34 H5         -3.2936   -2.2363   -0.3417 H         1 <0>         0.1383
     35 H6         -4.5781   -3.1125   -2.2481 H         1 <0>         0.1413
     36 H7         -3.4100   -4.1230   -4.1633 H         1 <0>         0.1373
     37 H8          0.3480   -3.3652   -2.2501 H         1 <0>         0.1223
     38 H9         -2.5390   -4.8695   -5.6005 H         1 <0>         0.1405
     39 H10        -1.2720   -5.8717   -7.4871 H         1 <0>         0.1448
     40 H11         1.1846   -5.9601   -7.3789 H         1 <0>         0.1636
     41 H12         1.2122   -4.1192   -3.6606 H         1 <0>         0.1489
     42 H13         1.2322   -3.8881    1.0309 H         1 <0>         0.1281
     43 H14         1.0131   -5.3683    2.9765 H         1 <0>         0.1420
     44 H15        -2.7756   -2.5422    1.5871 H         1 <0>         0.1392
     45 H16        -3.3442   -3.4767    4.6443 H         1 <0>         0.0992
     46 H17        -4.1567   -4.4331    3.3608 H         1 <0>         0.1010
     47 H18        -3.0800   -5.6010    5.6511 H         1 <0>         0.1168
     48 H19        -3.1701   -6.4589    4.0775 H         1 <0>         0.0864
     49 H20         1.4150   -2.7522   -0.6411 H         1 <0>         0.4629
     50 H21         2.9910   -0.7473   -0.7676 H         1 <0>         0.4528
@<TRIPOS>BOND
     1    1    2 1
     2    1   30 1
     3    1   31 1
     4    1   32 1
     5    2    7 1
     6    2    3 am
     7    3    4 2
     8    3    5 1
     9    5    6 1
    10    5    9 1
    11    5   21 1
    12    6    7 1
    13    6   49 1
    14    7    8 2
    15    8   33 1
    16    8   50 1
    17    9   14 ar
    18    9   10 ar
    19   10   11 ar
    20   10   34 1
    21   11   12 ar
    22   11   35 1
    23   12   13 ar
    24   12   36 1
    25   13   14 ar
    26   13   15 1
    27   14   37 1
    28   15   20 ar
    29   15   16 ar
    30   16   17 ar
    31   16   38 1
    32   17   18 ar
    33   17   39 1
    34   18   19 ar
    35   18   40 1
    36   19   20 ar
    37   20   41 1
    38   21   26 ar
    39   21   22 ar
    40   22   23 ar
    41   22   42 1
    42   23   24 ar
    43   23   43 1
    44   24   29 1
    45   24   25 ar
    46   25   26 ar
    47   25   27 1
    48   26   44 1
    49   27   28 1
    50   27   45 1
    51   27   46 1
    52   28   29 1
    53   28   47 1
    54   28   48 1
@<TRIPOS>MOLECULE
CHEMBL566414__1
   50    54     0     0     0
SMALL
USER_CHARGES

@<TRIPOS>ATOM
      1 C1         -1.5941    1.3413    0.3377 C.3       1 <0>         0.0628
      2 N1         -0.9667    0.0233    0.2130 N.am      1 <0>        -0.5527
      3 C2         -1.6408   -1.1390    0.0862 C.2       1 <0>         0.5440
      4 O1         -2.8429   -1.2945    0.0537 O.2       1 <0>        -0.3867
      5 C3         -0.5701   -2.2081   -0.0072 C.3       1 <0>         0.2284
      6 N2          0.6907   -1.4550    0.0862 N.pl3     1 <0>        -0.6259
      7 C4          0.3880   -0.1989    0.2031 C.cat     1 <0>         0.7342
      8 N3          1.3238    0.8021    0.3096 N.pl3     1 <0>        -0.7765
      9 C5         -0.6579   -2.9306   -1.3269 C.ar      1 <0>        -0.1086
     10 C6         -1.8722   -3.4327   -1.7596 C.ar      1 <0>        -0.0905
     11 C7         -1.9600   -4.0967   -2.9696 C.ar      1 <0>        -0.0955
     12 C8         -0.8352   -4.2615   -3.7526 C.ar      1 <0>        -0.0862
     13 C9          0.3901   -3.7575   -3.3219 C.ar      1 <0>        -0.0224
     14 C10         0.4719   -3.0850   -2.1040 C.ar      1 <0>        -0.0961
     15 C11         1.6028   -3.9316   -4.1593 C.ar      1 <0>        -0.1115
     16 C12         1.5286   -4.5954   -5.3870 C.ar      1 <0>        -0.0606
     17 C13         2.6881   -4.7318   -6.1306 C.ar      1 <0>        -0.1614
     18 C14         3.8719   -4.2118   -5.6394 C.ar      1 <0>         0.1099
     19 N4          3.9109   -3.5906   -4.4767 N.ar      1 <0>        -0.4793
     20 C15         2.8323   -3.4312   -3.7371 C.ar      1 <0>         0.1089
     21 C16        -0.6916   -3.1798    1.1382 C.ar      1 <0>        -0.1537
     22 C17         0.4196   -3.5019    1.8957 C.ar      1 <0>        -0.0616
     23 C18         0.3129   -4.3875    2.9479 C.ar      1 <0>        -0.1308
     24 C19        -0.9161   -4.9656    3.2563 C.ar      1 <0>         0.1410
     25 C20        -2.0233   -4.6400    2.4837 C.ar      1 <0>        -0.1609
     26 C21        -1.9164   -3.7484    1.4392 C.ar      1 <0>        -0.0389
     27 C22        -3.1960   -5.4294    3.0326 C.3       1 <0>        -0.1150
     28 C23        -2.4867   -6.4866    3.9115 C.3       1 <0>         0.0488
     29 O2         -1.2452   -5.8423    4.2445 O.3       1 <0>        -0.2947
     30 H1         -0.8211    2.1053    0.4205 H         1 <0>         0.1007
     31 H2         -2.2058    1.5373   -0.5429 H         1 <0>         0.1094
     32 H3         -2.2222    1.3619    1.2283 H         1 <0>         0.1096
     33 H4          1.0387    1.7251    0.3981 H         1 <0>         0.4445
     34 H5          2.2692    0.5857    0.2963 H         1 <0>         0.4472
     35 H6         -2.7548   -3.3060   -1.1502 H         1 <0>         0.1387
     36 H7         -2.9103   -4.4873   -3.3023 H         1 <0>         0.1426
     37 H8         -0.9048   -4.7805   -4.6971 H         1 <0>         0.1384
     38 H9          1.4185   -2.6890   -1.7672 H         1 <0>         0.1214
     39 H10         0.5905   -4.9921   -5.7462 H         1 <0>         0.1408
     40 H11         2.6687   -5.2392   -7.0838 H         1 <0>         0.1452
     41 H12         4.7785   -4.3164   -6.2169 H         1 <0>         0.1640
     42 H13         2.9030   -2.9123   -2.7926 H         1 <0>         0.1485
     43 H14         1.3760   -3.0580    1.6621 H         1 <0>         0.1273
     44 H15         1.1856   -4.6332    3.5348 H         1 <0>         0.1432
     45 H16        -2.7877   -3.4961    0.8530 H         1 <0>         0.1397
     46 H17        -3.8453   -4.7941    3.6351 H         1 <0>         0.0999
     47 H18        -3.7565   -5.9047    2.2276 H         1 <0>         0.1016
     48 H19        -3.0673   -6.6940    4.8104 H         1 <0>         0.1174
     49 H20        -2.3076   -7.4013    3.3465 H         1 <0>         0.0869
     50 H21         1.5853   -1.8291    0.0606 H         1 <0>         0.4645
@<TRIPOS>BOND
     1    1    2 1
     2    1   30 1
     3    1   31 1
     4    1   32 1
     5    2    7 1
     6    2    3 am
     7    3    4 2
     8    3    5 1
     9    5    6 1
    10    5    9 1
    11    5   21 1
    12    6    7 2
    13    6   50 1
    14    7    8 1
    15    8   33 1
    16    8   34 1
    17    9   14 ar
    18    9   10 ar
    19   10   11 ar
    20   10   35 1
    21   11   12 ar
    22   11   36 1
    23   12   13 ar
    24   12   37 1
    25   13   14 ar
    26   13   15 1
    27   14   38 1
    28   15   20 ar
    29   15   16 ar
    30   16   17 ar
    31   16   39 1
    32   17   18 ar
    33   17   40 1
    34   18   19 ar
    35   18   41 1
    36   19   20 ar
    37   20   42 1
    38   21   26 ar
    39   21   22 ar
    40   22   23 ar
    41   22   43 1
    42   23   24 ar
    43   23   44 1
    44   24   29 1
    45   24   25 ar
    46   25   26 ar
    47   25   27 1
    48   26   45 1
    49   27   28 1
    50   27   46 1
    51   27   47 1
    52   28   29 1
    53   28   48 1
    54   28   49 1
@<TRIPOS>MOLECULE
CHEMBL566414__2
   50    54     0     0     0
SMALL
USER_CHARGES

@<TRIPOS>ATOM
      1 C1          0.9745    1.1340    0.3445 C.3       1 <0>         0.0608
      2 N1          0.5842   -0.2641    0.1466 N.am      1 <0>        -0.5531
      3 C2         -0.6706   -0.7307    0.2906 C.2       1 <0>         0.5433
      4 O1         -1.6521   -0.0888    0.5985 O.2       1 <0>        -0.3911
      5 C3         -0.6155   -2.2137   -0.0076 C.3       1 <0>         0.2387
      6 N2          0.7991   -2.4715   -0.3223 N.pl3     1 <0>        -0.6657
      7 C4          1.4499   -1.2671   -0.2158 C.cat     1 <0>         0.7338
      8 N3          2.7232   -1.0983   -0.4276 N.pl3     1 <0>        -0.7327
      9 C5         -1.0399   -3.0096    1.1996 C.ar      1 <0>        -0.1075
     10 C6         -2.1894   -2.6621    1.8865 C.ar      1 <0>        -0.0937
     11 C7         -2.5847   -3.3882    2.9952 C.ar      1 <0>        -0.0965
     12 C8         -1.8335   -4.4648    3.4221 C.ar      1 <0>        -0.0875
     13 C9         -0.6753   -4.8194    2.7339 C.ar      1 <0>        -0.0254
     14 C10        -0.2843   -4.0872    1.6145 C.ar      1 <0>        -0.0929
     15 C11         0.1362   -5.9758    3.1881 C.ar      1 <0>        -0.1100
     16 C12        -0.2535   -6.7226    4.3033 C.ar      1 <0>        -0.0613
     17 C13         0.5376   -7.7917    4.6866 C.ar      1 <0>        -0.1615
     18 C14         1.6779   -8.0840    3.9605 C.ar      1 <0>         0.1087
     19 N4          2.0206   -7.3606    2.9123 N.ar      1 <0>        -0.4797
     20 C15         1.2958   -6.3380    2.5064 C.ar      1 <0>         0.1082
     21 C16        -1.4871   -2.5453   -1.1915 C.ar      1 <0>        -0.1523
     22 C17        -2.8013   -2.1166   -1.2273 C.ar      1 <0>        -0.0521
     23 C18        -3.6021   -2.4138   -2.3103 C.ar      1 <0>        -0.1272
     24 C19        -3.0932   -3.1493   -3.3781 C.ar      1 <0>         0.1393
     25 C20        -1.7741   -3.5806   -3.3272 C.ar      1 <0>        -0.1687
     26 C21        -0.9735   -3.2749   -2.2488 C.ar      1 <0>        -0.0473
     27 C22        -1.5139   -4.3657   -4.5983 C.3       1 <0>        -0.1128
     28 C23        -2.9493   -4.6231   -5.1148 C.3       1 <0>         0.0484
     29 O2         -3.6951   -3.5391   -4.5353 O.3       1 <0>        -0.2946
     30 H1          2.0434    1.2423    0.1606 H         1 <0>         0.0990
     31 H2          0.4207    1.7675   -0.3483 H         1 <0>         0.1109
     32 H3          0.7500    1.4324    1.3686 H         1 <0>         0.1110
     33 H4          3.1184   -0.2177   -0.3312 H         1 <0>         0.4490
     34 H5         -2.7800   -1.8205    1.5560 H         1 <0>         0.1399
     35 H6         -3.4825   -3.1121    3.5282 H         1 <0>         0.1419
     36 H7         -2.1429   -5.0309    4.2882 H         1 <0>         0.1373
     37 H8          0.6107   -4.3602    1.0750 H         1 <0>         0.1216
     38 H9         -1.1491   -6.4716    4.8523 H         1 <0>         0.1407
     39 H10         0.2676   -8.3909    5.5436 H         1 <0>         0.1449
     40 H11         2.2976   -8.9175    4.2567 H         1 <0>         0.1635
     41 H12         1.6062   -5.7724    1.6403 H         1 <0>         0.1487
     42 H13        -3.2029   -1.5463   -0.4027 H         1 <0>         0.1447
     43 H14        -4.6272   -2.0746   -2.3306 H         1 <0>         0.1444
     44 H15         0.0537   -3.6078   -2.2270 H         1 <0>         0.1218
     45 H16        -0.9435   -3.7722   -5.3128 H         1 <0>         0.0969
     46 H17        -1.0046   -5.3041   -4.3792 H         1 <0>         0.0986
     47 H18        -2.9823   -4.5761   -6.2033 H         1 <0>         0.1164
     48 H19        -3.3221   -5.5830   -4.7572 H         1 <0>         0.0862
     49 H20         1.1937   -3.3246   -0.5617 H         1 <0>         0.4622
     50 H21         3.2768   -1.8532   -0.6818 H         1 <0>         0.4525
@<TRIPOS>BOND
     1    1    2 1
     2    1   30 1
     3    1   31 1
     4    1   32 1
     5    2    7 1
     6    2    3 am
     7    3    4 2
     8    3    5 1
     9    5    6 1
    10    5    9 1
    11    5   21 1
    12    6    7 1
    13    6   49 1
    14    7    8 2
    15    8   33 1
    16    8   50 1
    17    9   14 ar
    18    9   10 ar
    19   10   11 ar
    20   10   34 1
    21   11   12 ar
    22   11   35 1
    23   12   13 ar
    24   12   36 1
    25   13   14 ar
    26   13   15 1
    27   14   37 1
    28   15   20 ar
    29   15   16 ar
    30   16   17 ar
    31   16   38 1
    32   17   18 ar
    33   17   39 1
    34   18   19 ar
    35   18   40 1
    36   19   20 ar
    37   20   41 1
    38   21   26 ar
    39   21   22 ar
    40   22   23 ar
    41   22   42 1
    42   23   24 ar
    43   23   43 1
    44   24   29 1
    45   24   25 ar
    46   25   26 ar
    47   25   27 1
    48   26   44 1
    49   27   28 1
    50   27   45 1
    51   27   46 1
    52   28   29 1
    53   28   47 1
    54   28   48 1
@<TRIPOS>MOLECULE
CHEMBL566414__3
   50    54     0     0     0
SMALL
USER_CHARGES

@<TRIPOS>ATOM
      1 C1         -0.5669    1.4834   -0.3796 C.3       1 <0>         0.0625
      2 N1         -0.3305    0.0445   -0.2387 N.am      1 <0>        -0.5525
      3 C2         -1.3019   -0.8859   -0.1275 C.2       1 <0>         0.5426
      4 O1         -2.5006   -0.7037   -0.1248 O.2       1 <0>        -0.3847
      5 C3         -0.5701   -2.2081   -0.0072 C.3       1 <0>         0.2283
      6 N2          0.8514   -1.8326   -0.0705 N.pl3     1 <0>        -0.6244
      7 C4          0.9095   -0.5439   -0.2075 C.cat     1 <0>         0.7338
      8 N3          2.0870    0.1580   -0.3068 N.pl3     1 <0>        -0.7775
      9 C5         -0.8843   -2.8685    1.3104 C.ar      1 <0>        -0.1087
     10 C6          0.1431   -3.3290    2.1143 C.ar      1 <0>        -0.1033
     11 C7         -0.1381   -3.9360    3.3247 C.ar      1 <0>        -0.0993
     12 C8         -1.4470   -4.0851    3.7374 C.ar      1 <0>        -0.0877
     13 C9         -2.4855   -3.6229    2.9320 C.ar      1 <0>        -0.0154
     14 C10        -2.1961   -3.0077    1.7155 C.ar      1 <0>        -0.0868
     15 C11        -3.8945   -3.7804    3.3703 C.ar      1 <0>        -0.1170
     16 C12        -4.1941   -4.3866    4.5934 C.ar      1 <0>        -0.0600
     17 C13        -5.5240   -4.5098    4.9567 C.ar      1 <0>        -0.1656
     18 C14        -6.5047   -4.0335    4.1055 C.ar      1 <0>         0.1117
     19 N4         -6.1911   -3.4662    2.9569 N.ar      1 <0>        -0.4779
     20 C15        -4.9396   -3.3214    2.5718 C.ar      1 <0>         0.1162
     21 C16        -0.9284   -3.1171   -1.1546 C.ar      1 <0>        -0.1541
     22 C17        -2.2546   -3.3274   -1.4851 C.ar      1 <0>        -0.0515
     23 C18        -2.5879   -4.1550   -2.5370 C.ar      1 <0>        -0.1252
     24 C19        -1.5904   -4.7868   -3.2758 C.ar      1 <0>         0.1417
     25 C20        -0.2624   -4.5737   -2.9296 C.ar      1 <0>        -0.1673
     26 C21         0.0685   -3.7396   -1.8846 C.ar      1 <0>        -0.0480
     27 C22         0.5827   -5.3987   -3.8808 C.3       1 <0>        -0.1128
     28 C23        -0.4663   -6.3586   -4.4904 C.3       1 <0>         0.0483
     29 O2         -1.6929   -5.6227   -4.3454 O.3       1 <0>        -0.2936
     30 H1          0.3884    2.0030   -0.4540 H         1 <0>         0.1005
     31 H2         -1.1526    1.6690   -1.2799 H         1 <0>         0.1099
     32 H3         -1.1124    1.8489    0.4905 H         1 <0>         0.1099
     33 H4          2.0697    1.1229   -0.4047 H         1 <0>         0.4444
     34 H5          2.9354   -0.3115   -0.2790 H         1 <0>         0.4466
     35 H6          1.1685   -3.2144    1.7953 H         1 <0>         0.1204
     36 H7          0.6677   -4.2944    3.9481 H         1 <0>         0.1401
     37 H8         -1.6655   -4.5596    4.6826 H         1 <0>         0.1384
     38 H9         -2.9972   -2.6441    1.0890 H         1 <0>         0.1400
     39 H10        -3.4079   -4.7499    5.2386 H         1 <0>         0.1394
     40 H11        -5.7931   -4.9731    5.8944 H         1 <0>         0.1442
     41 H12        -7.5435   -4.1279    4.3857 H         1 <0>         0.1635
     42 H13        -4.7221   -2.8470    1.6263 H         1 <0>         0.1550
     43 H14        -3.0335   -2.8413   -0.9164 H         1 <0>         0.1442
     44 H15        -3.6261   -4.3135   -2.7889 H         1 <0>         0.1461
     45 H16         1.1056   -3.5745   -1.6327 H         1 <0>         0.1212
     46 H17         1.0290   -4.7695   -4.6509 H         1 <0>         0.0976
     47 H18         1.3497   -5.9528   -3.3396 H         1 <0>         0.0990
     48 H19        -0.2514   -6.5478   -5.5421 H         1 <0>         0.1170
     49 H20        -0.5074   -7.2922   -3.9294 H         1 <0>         0.0868
     50 H21         1.6072   -2.4387   -0.0229 H         1 <0>         0.4644
@<TRIPOS>BOND
     1    1    2 1
     2    1   30 1
     3    1   31 1
     4    1   32 1
     5    2    7 1
     6    2    3 am
     7    3    4 2
     8    3    5 1
     9    5    6 1
    10    5    9 1
    11    5   21 1
    12    6    7 2
    13    6   50 1
    14    7    8 1
    15    8   33 1
    16    8   34 1
    17    9   14 ar
    18    9   10 ar
    19   10   11 ar
    20   10   35 1
    21   11   12 ar
    22   11   36 1
    23   12   13 ar
    24   12   37 1
    25   13   14 ar
    26   13   15 1
    27   14   38 1
    28   15   20 ar
    29   15   16 ar
    30   16   17 ar
    31   16   39 1
    32   17   18 ar
    33   17   40 1
    34   18   19 ar
    35   18   41 1
    36   19   20 ar
    37   20   42 1
    38   21   26 ar
    39   21   22 ar
    40   22   23 ar
    41   22   43 1
    42   23   24 ar
    43   23   44 1
    44   24   29 1
    45   24   25 ar
    46   25   26 ar
    47   25   27 1
    48   26   45 1
    49   27   28 1
    50   27   46 1
    51   27   47 1
    52   28   29 1
    53   28   48 1
    54   28   49 1
@<TRIPOS>MOLECULE
CHEMBL566826
   72    74     0     0     0
SMALL
USER_CHARGES

@<TRIPOS>ATOM
      1 C1         -0.5807    2.6338    0.7646 C.3       1 <0>        -0.1848
      2 C2         -0.7352    1.1709    0.4374 C.2       1 <0>         0.5112
      3 O1          0.2203    0.5318    0.0508 O.2       1 <0>        -0.5313
      4 N1         -1.9352    0.5728    0.5744 N.am      1 <0>        -0.7330
      5 C3         -2.0855   -0.8493    0.2563 C.3       1 <0>         0.1325
      6 H1         -3.1184   -1.1526    0.4268 H         1 <0>         0.1061
      7 C4         -1.7203   -1.0852   -1.2107 C.3       1 <0>        -0.0988
      8 C5         -2.7099   -0.3720   -2.0956 C.ar      1 <0>        -0.0287
      9 C6         -3.8572   -1.0208   -2.5114 C.ar      1 <0>        -0.1646
     10 C7         -4.7670   -0.3667   -3.3249 C.ar      1 <0>         0.1398
     11 C8         -4.5272    0.9377   -3.7213 C.ar      1 <0>        -0.1922
     12 C9         -3.3781    1.5867   -3.3039 C.ar      1 <0>         0.1389
     13 C10        -2.4722    0.9323   -2.4862 C.ar      1 <0>        -0.1583
     14 F1         -3.1428    2.8598   -3.6901 F         1 <0>        -0.1257
     15 F2         -5.8880   -1.0014   -3.7319 F         1 <0>        -0.1255
     16 C11        -1.1576   -1.6730    1.1516 C.3       1 <0>         0.0677
     17 H2         -0.1246   -1.3696    0.9810 H         1 <0>         0.1458
     18 C12        -1.5228   -1.4371    2.6185 C.3       1 <0>        -0.0581
     19 N2         -0.5581   -2.1323    3.4812 N.4       1 <0>        -0.5010
     20 C13        -0.9599   -1.9812    4.8861 C.3       1 <0>         0.1125
     21 C14        -1.0160   -0.4946    5.2417 C.3       1 <0>        -0.1308
     22 C15         0.3435    0.1499    4.9516 C.3       1 <0>        -0.1895
     23 C16         1.4114   -0.6275    5.6888 C.2       1 <0>         0.3447
     24 O2          2.2091   -0.0635    6.3987 O.2       1 <0>        -0.4105
     25 C17         1.4543   -2.1295    5.5144 C.3       1 <0>        -0.1903
     26 C18         0.0545   -2.6913    5.7841 C.3       1 <0>        -0.1252
     27 C19        -2.3218   -2.5945    5.0863 C.ar      1 <0>        -0.1241
     28 C20        -2.7453   -3.6215    4.2633 C.ar      1 <0>        -0.1399
     29 C21        -3.9944   -4.1840    4.4469 C.ar      1 <0>        -0.0946
     30 C22        -4.8202   -3.7198    5.4540 C.ar      1 <0>        -0.0966
     31 C23        -4.3965   -2.6938    6.2773 C.ar      1 <0>        -0.0440
     32 C24        -3.1453   -2.1340    6.0963 C.ar      1 <0>        -0.0877
     33 C25        -5.2969   -2.1876    7.3747 C.3       1 <0>        -0.0352
     34 C26        -6.6097   -2.9731    7.3603 C.3       1 <0>        -0.1514
     35 C27        -4.6063   -2.3732    8.7273 C.3       1 <0>        -0.1429
     36 C28        -5.5886   -0.7025    7.1506 C.3       1 <0>        -0.1411
     37 O3         -1.3041   -3.0602    0.8413 O.3       1 <0>        -0.5416
     38 H3          0.4523    2.9371    0.5940 H         1 <0>         0.1005
     39 H4         -1.2417    3.2206    0.1268 H         1 <0>         0.0965
     40 H5         -0.8409    2.8018    1.8097 H         1 <0>         0.0912
     41 H6         -2.6994    1.0840    0.8836 H         1 <0>         0.4122
     42 H7         -0.7185   -0.7004   -1.4021 H         1 <0>         0.1084
     43 H8         -1.7460   -2.1537   -1.4243 H         1 <0>         0.1018
     44 H9         -4.0440   -2.0385   -2.2020 H         1 <0>         0.1430
     45 H10        -5.2361    1.4486   -4.3561 H         1 <0>         0.1523
     46 H11        -1.5777    1.4399   -2.1568 H         1 <0>         0.1361
     47 H12        -1.4970   -0.3686    2.8321 H         1 <0>         0.1419
     48 H13        -2.5245   -1.8219    2.8100 H         1 <0>         0.1451
     49 H14        -0.5371   -3.1121    3.2409 H         1 <0>         0.4312
     50 H15        -1.7850   -0.0064    4.6431 H         1 <0>         0.1051
     51 H16        -1.2530   -0.3827    6.2997 H         1 <0>         0.1203
     52 H17         0.5421    0.1192    3.8803 H         1 <0>         0.0946
     53 H18         0.3395    1.1839    5.2965 H         1 <0>         0.1229
     54 H19         1.7557   -2.3712    4.4952 H         1 <0>         0.0971
     55 H20         2.1640   -2.5600    6.2209 H         1 <0>         0.1239
     56 H21        -0.2079   -2.5274    6.8293 H         1 <0>         0.1201
     57 H22         0.0442   -3.7600    5.5698 H         1 <0>         0.1073
     58 H23        -2.1002   -3.9840    3.4766 H         1 <0>         0.1177
     59 H24        -4.3254   -4.9857    3.8036 H         1 <0>         0.1367
     60 H25        -5.7965   -4.1589    5.5970 H         1 <0>         0.1402
     61 H26        -2.8127   -1.3348    6.7421 H         1 <0>         0.1338
     62 H27        -6.4019   -4.0311    7.5199 H         1 <0>         0.0619
     63 H28        -7.2609   -2.6070    8.1540 H         1 <0>         0.0675
     64 H29        -7.1017   -2.8408    6.3966 H         1 <0>         0.0612
     65 H30        -3.6710   -1.8136    8.7376 H         1 <0>         0.0558
     66 H31        -5.2575   -2.0071    9.5210 H         1 <0>         0.0678
     67 H32        -4.3984   -3.4313    8.8869 H         1 <0>         0.0598
     68 H33        -6.0806   -0.5702    6.1870 H         1 <0>         0.0584
     69 H34        -6.2399   -0.3364    7.9443 H         1 <0>         0.0677
     70 H35        -4.6533   -0.1428    7.1609 H         1 <0>         0.0554
     71 H36        -2.2004   -3.3995    0.9703 H         1 <0>         0.3870
     72 H37         0.3594   -1.7339    3.3490 H         1 <0>         0.4255
@<TRIPOS>BOND
     1    1    2 1
     2    1   38 1
     3    1   39 1
     4    1   40 1
     5    2    3 2
     6    2    4 am
     7    4    5 1
     8    4   41 1
     9    5    6 1
    10    5    7 1
    11    5   16 1
    12    7    8 1
    13    7   42 1
    14    7   43 1
    15    8   13 ar
    16    8    9 ar
    17    9   10 ar
    18    9   44 1
    19   10   11 ar
    20   10   15 1
    21   11   12 ar
    22   11   45 1
    23   12   13 ar
    24   12   14 1
    25   13   46 1
    26   16   17 1
    27   16   18 1
    28   16   37 1
    29   18   19 1
    30   18   47 1
    31   18   48 1
    32   19   20 1
    33   19   49 1
    34   19   72 1
    35   20   26 1
    36   20   21 1
    37   20   27 1
    38   21   22 1
    39   21   50 1
    40   21   51 1
    41   22   23 1
    42   22   52 1
    43   22   53 1
    44   23   24 2
    45   23   25 1
    46   25   26 1
    47   25   54 1
    48   25   55 1
    49   26   56 1
    50   26   57 1
    51   27   32 ar
    52   27   28 ar
    53   28   29 ar
    54   28   58 1
    55   29   30 ar
    56   29   59 1
    57   30   31 ar
    58   30   60 1
    59   31   32 ar
    60   31   33 1
    61   32   61 1
    62   33   34 1
    63   33   35 1
    64   33   36 1
    65   34   62 1
    66   34   63 1
    67   34   64 1
    68   35   65 1
    69   35   66 1
    70   35   67 1
    71   36   68 1
    72   36   69 1
    73   36   70 1
    74   37   71 1
@<TRIPOS>MOLECULE
CHEMBL373423
   72    74     0     0     0
SMALL
USER_CHARGES

@<TRIPOS>ATOM
      1 C1          0.0924    1.4467    0.1262 C.3       1 <0>        -0.1627
      2 C2          0.0695   -0.0823    0.0762 C.3       1 <0>         0.1854
      3 H1          0.5825   -0.4822    0.9508 H         1 <0>         0.1039
      4 C3          0.7658   -0.5545   -1.1741 C.ar      1 <0>        -0.1046
      5 C4          0.0997   -0.5337   -2.3853 C.ar      1 <0>        -0.0896
      6 C5          0.7373   -0.9661   -3.5327 C.ar      1 <0>        -0.1515
      7 C6          2.0438   -1.4202   -3.4687 C.ar      1 <0>         0.1027
      8 C7          2.7099   -1.4405   -2.2551 C.ar      1 <0>        -0.1455
      9 C8          2.0719   -1.0027   -1.1099 C.ar      1 <0>        -0.0737
     10 F1          2.6679   -1.8435   -4.5896 F         1 <0>        -0.1358
     11 N1         -1.3189   -0.5499    0.0682 N.am      1 <0>        -0.7206
     12 C9         -1.9838   -0.7067    1.2300 C.2       1 <0>         0.5592
     13 O1         -1.4316   -0.4603    2.2844 O.2       1 <0>        -0.5182
     14 C10        -3.3851   -1.1787    1.2220 C.ar      1 <0>        -0.1126
     15 C11        -4.0197   -1.4679    0.0125 C.ar      1 <0>        -0.0732
     16 C12        -5.3274   -1.9081    0.0075 C.ar      1 <0>        -0.0869
     17 C13        -6.0139   -2.0640    1.1974 C.ar      1 <0>        -0.0892
     18 C14        -5.3912   -1.7788    2.4067 C.ar      1 <0>         0.1581
     19 C15        -4.0752   -1.3418    2.4227 C.ar      1 <0>        -0.0464
     20 N2         -6.0893   -1.9376    3.6064 N.pl3     1 <0>        -0.9557
     21 C16        -5.5745   -2.8396    4.6397 C.3       1 <0>         0.0849
     22 S1         -7.4987   -1.1061    3.8606 S.o2      1 <0>         2.5970
     23 O2         -7.5319   -0.8682    5.2611 O.2       1 <0>        -0.9344
     24 O3         -7.4510   -0.0224    2.9426 O.2       1 <0>        -0.9378
     25 C17        -8.8141   -2.2641    3.3922 C.3       1 <0>        -0.6723
     26 C18        -6.0099   -2.2196   -1.2995 C.3       1 <0>         0.1104
     27 O4         -5.7968   -3.5927   -1.6328 O.3       1 <0>        -0.3949
     28 C19        -6.4060   -3.9939   -2.8616 C.3       1 <0>         0.0395
     29 C20        -6.1142   -5.4741   -3.1161 C.3       1 <0>         0.0757
     30 C21        -6.7890   -6.3202   -2.0347 C.3       1 <0>        -0.1784
     31 C22        -6.6589   -5.8725   -4.4893 C.3       1 <0>        -0.0928
     32 C23        -6.3715   -7.3304   -4.7400 C.ar      1 <0>        -0.1269
     33 C24        -5.1897   -7.7069   -5.3503 C.ar      1 <0>        -0.1420
     34 C25        -4.9260   -9.0442   -5.5803 C.ar      1 <0>        -0.1070
     35 C26        -5.8439  -10.0051   -5.1996 C.ar      1 <0>        -0.1019
     36 C27        -7.0253   -9.6287   -4.5884 C.ar      1 <0>        -0.1059
     37 C28        -7.2871   -8.2916   -4.3546 C.ar      1 <0>        -0.1025
     38 N3         -4.6632   -5.7002   -3.0805 N.4       1 <0>        -0.6323
     39 H2          1.1254    1.7946    0.1322 H         1 <0>         0.0737
     40 H3         -0.4206    1.8466   -0.7484 H         1 <0>         0.0610
     41 H4         -0.4112    1.7882    1.0306 H         1 <0>         0.0700
     42 H5         -0.9195   -0.1798   -2.4349 H         1 <0>         0.1283
     43 H6          0.2167   -0.9501   -4.4788 H         1 <0>         0.1369
     44 H7          3.7288   -1.7948   -2.2040 H         1 <0>         0.1415
     45 H8          2.5928   -1.0144   -0.1639 H         1 <0>         0.1391
     46 H9         -1.7596   -0.7466   -0.7732 H         1 <0>         0.3961
     47 H10        -3.4872   -1.3468   -0.9192 H         1 <0>         0.1298
     48 H11        -7.0375   -2.4083    1.1870 H         1 <0>         0.1294
     49 H12        -3.5880   -1.1238    3.3616 H         1 <0>         0.1494
     50 H13        -4.9145   -2.2870    5.3084 H         1 <0>         0.0735
     51 H14        -6.4071   -3.2518    5.2098 H         1 <0>         0.0822
     52 H15        -5.0189   -3.6510    4.1696 H         1 <0>         0.0797
     53 H16        -8.7533   -3.1551    4.0172 H         1 <0>         0.1324
     54 H17        -9.7844   -1.7877    3.5321 H         1 <0>         0.1369
     55 H18        -8.6950   -2.5454    2.3459 H         1 <0>         0.1250
     56 H19        -7.0792   -2.0303   -1.2052 H         1 <0>         0.0763
     57 H20        -5.5968   -1.5867   -2.0849 H         1 <0>         0.0755
     58 H21        -7.4835   -3.8414   -2.7997 H         1 <0>         0.1001
     59 H22        -6.0011   -3.3978   -3.6794 H         1 <0>         0.0810
     60 H23        -7.8656   -6.1524   -2.0611 H         1 <0>         0.1050
     61 H24        -6.5811   -7.3747   -2.2160 H         1 <0>         0.0865
     62 H25        -6.4009   -6.0364   -1.0564 H         1 <0>         0.0908
     63 H26        -7.7356   -5.7046   -4.5157 H         1 <0>         0.1219
     64 H27        -6.1782   -5.2696   -5.2597 H         1 <0>         0.1012
     65 H28        -4.4725   -6.9561   -5.6477 H         1 <0>         0.1226
     66 H29        -4.0030   -9.3383   -6.0577 H         1 <0>         0.1324
     67 H30        -5.6382  -11.0499   -5.3799 H         1 <0>         0.1327
     68 H31        -7.7427  -10.3794   -4.2913 H         1 <0>         0.1331
     69 H32        -8.2084   -7.9978   -3.8737 H         1 <0>         0.1302
     70 H33        -4.3039   -5.4375   -2.1750 H         1 <0>         0.4408
     71 H34        -4.4707   -6.6764   -3.2484 H         1 <0>         0.4324
     72 H35        -4.2182   -5.1422   -3.7937 H         1 <0>         0.4311
@<TRIPOS>BOND
     1    1    2 1
     2    1   39 1
     3    1   40 1
     4    1   41 1
     5    2    3 1
     6    2    4 1
     7    2   11 1
     8    4    9 ar
     9    4    5 ar
    10    5    6 ar
    11    5   42 1
    12    6    7 ar
    13    6   43 1
    14    7    8 ar
    15    7   10 1
    16    8    9 ar
    17    8   44 1
    18    9   45 1
    19   11   12 am
    20   11   46 1
    21   12   13 2
    22   12   14 1
    23   14   19 ar
    24   14   15 ar
    25   15   16 ar
    26   15   47 1
    27   16   17 ar
    28   16   26 1
    29   17   18 ar
    30   17   48 1
    31   18   19 ar
    32   18   20 1
    33   19   49 1
    34   20   21 1
    35   20   22 1
    36   21   50 1
    37   21   51 1
    38   21   52 1
    39   22   23 2
    40   22   24 2
    41   22   25 1
    42   25   53 1
    43   25   54 1
    44   25   55 1
    45   26   27 1
    46   26   56 1
    47   26   57 1
    48   27   28 1
    49   28   29 1
    50   28   58 1
    51   28   59 1
    52   29   30 1
    53   29   31 1
    54   29   38 1
    55   30   60 1
    56   30   61 1
    57   30   62 1
    58   31   32 1
    59   31   63 1
    60   31   64 1
    61   32   37 ar
    62   32   33 ar
    63   33   34 ar
    64   33   65 1
    65   34   35 ar
    66   34   66 1
    67   35   36 ar
    68   35   67 1
    69   36   37 ar
    70   36   68 1
    71   37   69 1
    72   38   70 1
    73   38   71 1
    74   38   72 1
@<TRIPOS>MOLECULE
CHEMBL582982
   54    57     0     0     0
SMALL
USER_CHARGES

@<TRIPOS>ATOM
      1 C1         -1.2753    0.8676    0.9584 C.3       1 <0>         0.0617
      2 N1         -0.4925   -0.2526    0.4306 N.pl3     1 <0>        -0.4447
      3 C2         -0.9483   -1.2493   -0.4025 C.2       1 <0>         0.0281
      4 C3          0.0913   -2.0670   -0.6401 C.2       1 <0>         0.0598
      5 N2          1.1603   -1.5951    0.0237 N.pl3     1 <0>        -0.5208
      6 C4          0.8238   -0.5018    0.6662 C.cat     1 <0>         0.5821
      7 N3          1.6653    0.2662    1.4538 N.pl3     1 <0>        -0.8043
      8 C5          0.0629   -3.3025   -1.5026 C.3       1 <0>         0.0271
      9 C6         -1.3185   -3.4457   -2.1928 C.3       1 <0>        -0.1167
     10 C7         -1.9637   -4.7372   -1.6154 C.3       1 <0>        -0.1153
     11 C8         -1.2613   -4.8905   -0.2654 C.3       1 <0>        -0.0500
     12 C9          0.2085   -4.5498   -0.6436 C.3       1 <0>        -0.0662
     13 C10         0.9688   -4.4374    0.6352 C.2       1 <0>        -0.1459
     14 C11         0.7218   -5.4021    1.5418 C.2       1 <0>        -0.0714
     15 C12        -0.2361   -6.4816    1.2237 C.2       1 <0>         0.0799
     16 C13        -1.2349   -6.2572    0.3386 C.2       1 <0>        -0.0561
     17 F1         -2.1460   -7.2036    0.0231 F         1 <0>        -0.1273
     18 O1         -0.1138   -7.6989    1.8191 O.3       1 <0>        -0.3100
     19 C14        -1.0753   -8.6945    1.4638 C.3       1 <0>         0.0222
     20 C15         1.1781   -3.2447   -2.5485 C.3       1 <0>        -0.0808
     21 C16         1.0660   -1.9624   -3.3320 C.ar      1 <0>        -0.0556
     22 C17         0.2409   -1.8988   -4.4393 C.ar      1 <0>        -0.1104
     23 C18         0.1381   -0.7225   -5.1581 C.ar      1 <0>        -0.0580
     24 C19         0.8600    0.3904   -4.7693 C.ar      1 <0>        -0.1758
     25 C20         1.6845    0.3271   -3.6615 C.ar      1 <0>        -0.0653
     26 C21         1.7840   -0.8479   -2.9402 C.ar      1 <0>        -0.1273
     27 C22         0.7487    1.6724   -5.5535 C.3       1 <0>         0.5052
     28 F2         -0.2882    2.4514   -5.0289 F         1 <0>        -0.1758
     29 F3          1.9530    2.3789   -5.4657 F         1 <0>        -0.1749
     30 F4          0.4779    1.3772   -6.8939 F         1 <0>        -0.1717
     31 H1         -1.2154    1.7095    0.2688 H         1 <0>         0.1059
     32 H2         -2.3158    0.5629    1.0704 H         1 <0>         0.1198
     33 H3         -0.8770    1.1638    1.9289 H         1 <0>         0.1030
     34 H4         -1.9505   -1.3541   -0.7909 H         1 <0>         0.2208
     35 H5          1.3257    1.0607    1.8947 H         1 <0>         0.4384
     36 H6          2.5941    0.0096    1.5646 H         1 <0>         0.4386
     37 H7         -1.9423   -2.5814   -1.9646 H         1 <0>         0.0804
     38 H8         -1.1902   -3.5411   -3.2710 H         1 <0>         0.0950
     39 H9         -3.0371   -4.6055   -1.4797 H         1 <0>         0.0863
     40 H10        -1.7566   -5.5930   -2.2580 H         1 <0>         0.0849
     41 H11        -1.6569   -4.1696    0.4501 H         1 <0>         0.0965
     42 H12         0.6291   -5.3586   -1.2411 H         1 <0>         0.1132
     43 H13         1.6699   -3.6372    0.8211 H         1 <0>         0.1220
     44 H14         1.2226   -5.3871    2.4986 H         1 <0>         0.1413
     45 H15        -1.0210   -8.8859    0.3921 H         1 <0>         0.0647
     46 H16        -0.8637   -9.6147    2.0084 H         1 <0>         0.1006
     47 H17        -2.0745   -8.3423    1.7198 H         1 <0>         0.0647
     48 H18         2.1465   -3.2822   -2.0495 H         1 <0>         0.0831
     49 H19         1.0854   -4.0937   -3.2258 H         1 <0>         0.1073
     50 H20        -0.3231   -2.7683   -4.7430 H         1 <0>         0.1424
     51 H21        -0.5060   -0.6731   -6.0236 H         1 <0>         0.1430
     52 H22         2.2488    1.1965   -3.3580 H         1 <0>         0.1356
     53 H23         2.4252   -0.8963   -2.0726 H         1 <0>         0.1176
     54 H24         2.0430   -1.9972    0.0241 H         1 <0>         0.4532
@<TRIPOS>BOND
     1    1    2 1
     2    1   31 1
     3    1   32 1
     4    1   33 1
     5    2    6 1
     6    2    3 1
     7    3    4 2
     8    3   34 1
     9    4    5 1
    10    4    8 1
    11    5    6 2
    12    5   54 1
    13    6    7 1
    14    7   35 1
    15    7   36 1
    16    8   12 1
    17    8    9 1
    18    8   20 1
    19    9   10 1
    20    9   37 1
    21    9   38 1
    22   10   11 1
    23   10   39 1
    24   10   40 1
    25   11   16 1
    26   11   12 1
    27   11   41 1
    28   12   13 1
    29   12   42 1
    30   13   14 2
    31   13   43 1
    32   14   15 1
    33   14   44 1
    34   15   16 2
    35   15   18 1
    36   16   17 1
    37   18   19 1
    38   19   45 1
    39   19   46 1
    40   19   47 1
    41   20   21 1
    42   20   48 1
    43   20   49 1
    44   21   26 ar
    45   21   22 ar
    46   22   23 ar
    47   22   50 1
    48   23   24 ar
    49   23   51 1
    50   24   25 ar
    51   24   27 1
    52   25   26 ar
    53   25   52 1
    54   26   53 1
    55   27   28 1
    56   27   29 1
    57   27   30 1
@<TRIPOS>MOLECULE
CHEMBL582982__1
   54    57     0     0     0
SMALL
USER_CHARGES

@<TRIPOS>ATOM
      1 C1          1.4568   -0.0121    1.9796 C.3       1 <0>         0.0620
      2 N1          0.7045   -0.6890    0.9203 N.pl3     1 <0>        -0.4466
      3 C2          1.0478   -1.8676    0.2974 C.2       1 <0>         0.0244
      4 C3          0.0873   -2.1276   -0.6058 C.2       1 <0>         0.0584
      5 N2         -0.8251   -1.1425   -0.5474 N.pl3     1 <0>        -0.5164
      6 C4         -0.4685   -0.2749    0.3699 C.cat     1 <0>         0.5829
      7 N3         -1.1662    0.8702    0.7165 N.pl3     1 <0>        -0.8037
      8 C5          0.0414   -3.3193   -1.5270 C.3       1 <0>         0.0212
      9 C6         -1.3186   -3.3734   -2.2606 C.3       1 <0>        -0.1200
     10 C7         -2.1702   -4.3375   -1.3926 C.3       1 <0>        -0.1249
     11 C8         -1.1290   -5.4324   -1.0116 C.3       1 <0>        -0.0432
     12 C9          0.1363   -4.6177   -0.7162 C.3       1 <0>        -0.0421
     13 C10         1.3947   -5.3647   -0.9897 C.2       1 <0>        -0.1395
     14 C11         1.4587   -6.3487   -1.8758 C.2       1 <0>        -0.0771
     15 C12         0.2487   -6.7302   -2.6218 C.2       1 <0>         0.0872
     16 C13        -0.9451   -6.3039   -2.2236 C.2       1 <0>        -0.0601
     17 F1         -2.0352   -6.6674   -2.9340 F         1 <0>        -0.1401
     18 O1          0.3530   -7.5218   -3.7235 O.3       1 <0>        -0.3103
     19 C14        -0.8607   -7.8542   -4.4007 C.3       1 <0>         0.0223
     20 C15         1.1857   -3.2458   -2.5401 C.3       1 <0>        -0.0729
     21 C16         1.0824   -1.9619   -3.3222 C.ar      1 <0>        -0.0585
     22 C17         0.2655   -1.8944   -4.4353 C.ar      1 <0>        -0.1151
     23 C18         0.1707   -0.7167   -5.1528 C.ar      1 <0>        -0.0628
     24 C19         0.8926    0.3938   -4.7570 C.ar      1 <0>        -0.1781
     25 C20         1.7088    0.3266   -3.6433 C.ar      1 <0>        -0.0686
     26 C21         1.8002   -0.8499   -2.9234 C.ar      1 <0>        -0.1219
     27 C22         0.7901    1.6775   -5.5397 C.3       1 <0>         0.5052
     28 F2         -0.2487    2.4581   -5.0213 F         1 <0>        -0.1775
     29 F3          1.9955    2.3808   -5.4420 F         1 <0>        -0.1740
     30 F4          0.5282    1.3852   -6.8826 F         1 <0>        -0.1720
     31 H1          1.1227   -0.3754    2.9514 H         1 <0>         0.1057
     32 H2          2.5200   -0.2199    1.8598 H         1 <0>         0.1201
     33 H3          1.2872    1.0628    1.9156 H         1 <0>         0.1026
     34 H4          1.9227   -2.4688    0.4964 H         1 <0>         0.2210
     35 H5         -0.8225    1.4568    1.4084 H         1 <0>         0.4382
     36 H6         -1.9985    1.0857    0.2673 H         1 <0>         0.4390
     37 H7         -1.7751   -2.3841   -2.2938 H         1 <0>         0.0621
     38 H8         -1.1949   -3.7729   -3.2672 H         1 <0>         0.0958
     39 H9         -2.5466   -3.8316   -0.5035 H         1 <0>         0.0763
     40 H10        -2.9889   -4.7635   -1.9726 H         1 <0>         0.0902
     41 H11        -1.4557   -6.0138   -0.1494 H         1 <0>         0.1101
     42 H12         0.1322   -4.3570    0.3422 H         1 <0>         0.0987
     43 H13         2.2883   -5.0949   -0.4465 H         1 <0>         0.1366
     44 H14         2.3909   -6.8657   -2.0490 H         1 <0>         0.1449
     45 H15        -1.3485   -6.9409   -4.7414 H         1 <0>         0.0643
     46 H16        -0.6361   -8.4879   -5.2586 H         1 <0>         0.0945
     47 H17        -1.5231   -8.3872   -3.7187 H         1 <0>         0.0661
     48 H18         2.1396   -3.2747   -2.0135 H         1 <0>         0.0943
     49 H19         1.1216   -4.0932   -3.2226 H         1 <0>         0.1024
     50 H20        -0.2985   -2.7620   -4.7446 H         1 <0>         0.1376
     51 H21        -0.4670   -0.6642   -6.0229 H         1 <0>         0.1410
     52 H22         2.2730    1.1941   -3.3343 H         1 <0>         0.1363
     53 H23         2.4350   -0.9013   -2.0511 H         1 <0>         0.1300
     54 H24        -1.6240   -1.0844   -1.0945 H         1 <0>         0.4540
@<TRIPOS>BOND
     1    1    2 1
     2    1   31 1
     3    1   32 1
     4    1   33 1
     5    2    6 1
     6    2    3 1
     7    3    4 2
     8    3   34 1
     9    4    5 1
    10    4    8 1
    11    5    6 2
    12    5   54 1
    13    6    7 1
    14    7   35 1
    15    7   36 1
    16    8   12 1
    17    8    9 1
    18    8   20 1
    19    9   10 1
    20    9   37 1
    21    9   38 1
    22   10   11 1
    23   10   39 1
    24   10   40 1
    25   11   16 1
    26   11   12 1
    27   11   41 1
    28   12   13 1
    29   12   42 1
    30   13   14 2
    31   13   43 1
    32   14   15 1
    33   14   44 1
    34   15   16 2
    35   15   18 1
    36   16   17 1
    37   18   19 1
    38   19   45 1
    39   19   46 1
    40   19   47 1
    41   20   21 1
    42   20   48 1
    43   20   49 1
    44   21   26 ar
    45   21   22 ar
    46   22   23 ar
    47   22   50 1
    48   23   24 ar
    49   23   51 1
    50   24   25 ar
    51   24   27 1
    52   25   26 ar
    53   25   52 1
    54   26   53 1
    55   27   28 1
    56   27   29 1
    57   27   30 1
@<TRIPOS>MOLECULE
CHEMBL582982__2
   54    57     0     0     0
SMALL
USER_CHARGES

@<TRIPOS>ATOM
      1 C1         -0.4338    1.0143    1.2332 C.3       1 <0>         0.0624
      2 N1          0.1554   -0.1873    0.6373 N.pl3     1 <0>        -0.4430
      3 C2         -0.4788   -1.0860   -0.1905 C.2       1 <0>         0.0300
      4 C3          0.4220   -2.0324   -0.5046 C.2       1 <0>         0.0625
      5 N2          1.5802   -1.7330    0.1077 N.pl3     1 <0>        -0.5181
      6 C4          1.4346   -0.6232    0.7923 C.cat     1 <0>         0.5807
      7 N3          2.4158   -0.0029    1.5477 N.pl3     1 <0>        -0.8052
      8 C5          0.1754   -3.2258   -1.3912 C.3       1 <0>         0.0230
      9 C6         -1.2664   -3.1863   -1.9486 C.3       1 <0>        -0.1207
     10 C7         -1.7007   -4.6761   -1.9599 C.3       1 <0>        -0.1210
     11 C8         -1.0974   -5.1975   -0.6211 C.3       1 <0>        -0.0489
     12 C9          0.2778   -4.5203   -0.5751 C.3       1 <0>        -0.0505
     13 C10         0.7691   -4.2788    0.8093 C.2       1 <0>        -0.1536
     14 C11        -0.0523   -4.1311    1.8392 C.2       1 <0>        -0.0715
     15 C12        -1.5059   -4.2096    1.6222 C.2       1 <0>         0.0718
     16 C13        -1.9871   -4.6992    0.4846 C.2       1 <0>        -0.0388
     17 F1         -3.3263   -4.7512    0.3144 F         1 <0>        -0.1372
     18 O1         -2.3600   -3.7796    2.5901 O.3       1 <0>        -0.3150
     19 C14        -3.7583   -3.8841    2.3146 C.3       1 <0>         0.0223
     20 C15         1.1857   -3.2458   -2.5401 C.3       1 <0>        -0.0785
     21 C16         1.0824   -1.9619   -3.3222 C.ar      1 <0>        -0.0554
     22 C17         0.2655   -1.8944   -4.4353 C.ar      1 <0>        -0.1105
     23 C18         0.1707   -0.7167   -5.1528 C.ar      1 <0>        -0.0584
     24 C19         0.8926    0.3938   -4.7570 C.ar      1 <0>        -0.1751
     25 C20         1.7088    0.3266   -3.6433 C.ar      1 <0>        -0.0655
     26 C21         1.8002   -0.8499   -2.9234 C.ar      1 <0>        -0.1249
     27 C22         0.7901    1.6775   -5.5397 C.3       1 <0>         0.5052
     28 F2         -0.2487    2.4581   -5.0213 F         1 <0>        -0.1752
     29 F3          1.9955    2.3808   -5.4420 F         1 <0>        -0.1752
     30 F4          0.5282    1.3852   -6.8826 F         1 <0>        -0.1718
     31 H1         -0.2935    1.8600    0.5600 H         1 <0>         0.1054
     32 H2         -1.4993    0.8534    1.3972 H         1 <0>         0.1183
     33 H3          0.0529    1.2235    2.1858 H         1 <0>         0.1031
     34 H4         -1.5051   -1.0395   -0.5237 H         1 <0>         0.2150
     35 H5          2.2146    0.8175    2.0246 H         1 <0>         0.4378
     36 H6          3.3042   -0.3888    1.5999 H         1 <0>         0.4382
     37 H7         -1.9141   -2.6038   -1.2934 H         1 <0>         0.0767
     38 H8         -1.2750   -2.7775   -2.9590 H         1 <0>         0.0941
     39 H9         -2.7870   -4.7652   -1.9585 H         1 <0>         0.0894
     40 H10        -1.2693   -5.2011   -2.8121 H         1 <0>         0.0889
     41 H11        -1.0223   -6.2848   -0.6117 H         1 <0>         0.1126
     42 H12         0.9951   -5.1759   -1.0688 H         1 <0>         0.1088
     43 H13         1.8339   -4.2223    0.9809 H         1 <0>         0.1257
     44 H14         0.3418   -3.9550    2.8292 H         1 <0>         0.1368
     45 H15        -4.0169   -4.9283    2.1386 H         1 <0>         0.0675
     46 H16        -4.3255   -3.5079    3.1660 H         1 <0>         0.0938
     47 H17        -3.9991   -3.2959    1.4291 H         1 <0>         0.0641
     48 H18         2.1932   -3.3452   -2.1362 H         1 <0>         0.0832
     49 H19         0.9726   -4.0894   -3.1966 H         1 <0>         0.1067
     50 H20        -0.2985   -2.7620   -4.7446 H         1 <0>         0.1428
     51 H21        -0.4670   -0.6642   -6.0229 H         1 <0>         0.1431
     52 H22         2.2730    1.1941   -3.3343 H         1 <0>         0.1350
     53 H23         2.4350   -0.9013   -2.0511 H         1 <0>         0.1158
     54 H24         2.3968   -2.2532    0.0492 H         1 <0>         0.4533
@<TRIPOS>BOND
     1    1    2 1
     2    1   31 1
     3    1   32 1
     4    1   33 1
     5    2    6 1
     6    2    3 1
     7    3    4 2
     8    3   34 1
     9    4    5 1
    10    4    8 1
    11    5    6 2
    12    5   54 1
    13    6    7 1
    14    7   35 1
    15    7   36 1
    16    8   12 1
    17    8    9 1
    18    8   20 1
    19    9   10 1
    20    9   37 1
    21    9   38 1
    22   10   11 1
    23   10   39 1
    24   10   40 1
    25   11   16 1
    26   11   12 1
    27   11   41 1
    28   12   13 1
    29   12   42 1
    30   13   14 2
    31   13   43 1
    32   14   15 1
    33   14   44 1
    34   15   16 2
    35   15   18 1
    36   16   17 1
    37   18   19 1
    38   19   45 1
    39   19   46 1
    40   19   47 1
    41   20   21 1
    42   20   48 1
    43   20   49 1
    44   21   26 ar
    45   21   22 ar
    46   22   23 ar
    47   22   50 1
    48   23   24 ar
    49   23   51 1
    50   24   25 ar
    51   24   27 1
    52   25   26 ar
    53   25   52 1
    54   26   53 1
    55   27   28 1
    56   27   29 1
    57   27   30 1
@<TRIPOS>MOLECULE
CHEMBL582982__3
   54    57     0     0     0
SMALL
USER_CHARGES

@<TRIPOS>ATOM
      1 C1         -0.4290    1.4295    0.0827 C.3       1 <0>         0.0610
      2 N1         -0.1494   -0.0079    0.0380 N.pl3     1 <0>        -0.4463
      3 C2         -0.3084   -0.8395   -1.0475 C.2       1 <0>         0.0381
      4 C3          0.0613   -2.0705   -0.6553 C.2       1 <0>         0.0469
      5 N2          0.4384   -2.0079    0.6330 N.pl3     1 <0>        -0.5171
      6 C4          0.3220   -0.7726    1.0595 C.cat     1 <0>         0.5806
      7 N3          0.6241   -0.3239    2.3345 N.pl3     1 <0>        -0.8038
      8 C5          0.0534   -3.3095   -1.5132 C.3       1 <0>         0.0279
      9 C6         -1.3198   -3.4689   -2.2162 C.3       1 <0>        -0.1180
     10 C7         -1.8647   -4.8642   -1.7992 C.3       1 <0>        -0.1142
     11 C8         -0.5905   -5.6303   -1.4399 C.3       1 <0>        -0.0481
     12 C9          0.2029   -4.5520   -0.6480 C.3       1 <0>        -0.0716
     13 C10         1.5749   -5.0969   -0.4319 C.2       1 <0>        -0.1510
     14 C11         1.6312   -6.3845   -0.0415 C.2       1 <0>        -0.0740
     15 C12         0.3810   -7.1470    0.1587 C.2       1 <0>         0.0793
     16 C13        -0.7348   -6.8035   -0.5255 C.2       1 <0>        -0.0594
     17 F1         -1.8995   -7.4748   -0.3908 F         1 <0>        -0.1284
     18 O1          0.3522   -8.1922    1.0292 O.3       1 <0>        -0.3099
     19 C14        -0.8904   -8.8834    1.1720 C.3       1 <0>         0.0222
     20 C15         1.1781   -3.2447   -2.5485 C.3       1 <0>        -0.0745
     21 C16         1.0561   -1.9705   -3.3438 C.ar      1 <0>        -0.0625
     22 C17         0.2312   -1.9238   -4.4520 C.ar      1 <0>        -0.1137
     23 C18         0.1193   -0.7550   -5.1815 C.ar      1 <0>        -0.0619
     24 C19         0.8319    0.3673   -4.8025 C.ar      1 <0>        -0.1762
     25 C20         1.6561    0.3208   -3.6937 C.ar      1 <0>        -0.0705
     26 C21         1.7647   -0.8468   -2.9617 C.ar      1 <0>        -0.1192
     27 C22         0.7106    1.6412   -5.5984 C.3       1 <0>         0.5048
     28 F2         -0.3329    2.4165   -5.0815 F         1 <0>        -0.1764
     29 F3          1.9091    2.3582   -5.5163 F         1 <0>        -0.1744
     30 F4          0.4431    1.3316   -6.9362 F         1 <0>        -0.1719
     31 H1          0.4656    1.9827   -0.2033 H         1 <0>         0.1061
     32 H2         -1.2379    1.6640   -0.6092 H         1 <0>         0.1197
     33 H3         -0.7226    1.7112    1.0939 H         1 <0>         0.1038
     34 H4         -0.6631   -0.5566   -2.0276 H         1 <0>         0.2157
     35 H5          0.5031    0.6115    2.5608 H         1 <0>         0.4382
     36 H6          0.9567   -0.9451    3.0011 H         1 <0>         0.4390
     37 H7         -2.0026   -2.6862   -1.8856 H         1 <0>         0.0807
     38 H8         -1.1939   -3.4242   -3.2979 H         1 <0>         0.0942
     39 H9         -2.5216   -4.7794   -0.9335 H         1 <0>         0.0775
     40 H10        -2.3809   -5.3420   -2.6319 H         1 <0>         0.0881
     41 H11        -0.0568   -5.9208   -2.3448 H         1 <0>         0.1072
     42 H12        -0.2728   -4.3844    0.3184 H         1 <0>         0.0892
     43 H13         2.4625   -4.4993   -0.5782 H         1 <0>         0.1463
     44 H14         2.5872   -6.8588    0.1244 H         1 <0>         0.1450
     45 H15        -1.1893   -9.2963    0.2086 H         1 <0>         0.0658
     46 H16        -0.7755   -9.6919    1.8939 H         1 <0>         0.1003
     47 H17        -1.6541   -8.1891    1.5225 H         1 <0>         0.0622
     48 H18         2.1419   -3.2646   -2.0396 H         1 <0>         0.0907
     49 H19         1.1039   -4.1004   -3.2196 H         1 <0>         0.1052
     50 H20        -0.3255   -2.8006   -4.7481 H         1 <0>         0.1430
     51 H21        -0.5247   -0.7187   -6.0478 H         1 <0>         0.1431
     52 H22         2.2131    1.1975   -3.3978 H         1 <0>         0.1375
     53 H23         2.4058   -0.8820   -2.0932 H         1 <0>         0.1280
     54 H24         0.7517   -2.7573    1.1632 H         1 <0>         0.4554
@<TRIPOS>BOND
     1    1    2 1
     2    1   31 1
     3    1   32 1
     4    1   33 1
     5    2    6 1
     6    2    3 1
     7    3    4 2
     8    3   34 1
     9    4    5 1
    10    4    8 1
    11    5    6 2
    12    5   54 1
    13    6    7 1
    14    7   35 1
    15    7   36 1
    16    8   12 1
    17    8    9 1
    18    8   20 1
    19    9   10 1
    20    9   37 1
    21    9   38 1
    22   10   11 1
    23   10   39 1
    24   10   40 1
    25   11   16 1
    26   11   12 1
    27   11   41 1
    28   12   13 1
    29   12   42 1
    30   13   14 2
    31   13   43 1
    32   14   15 1
    33   14   44 1
    34   15   16 2
    35   15   18 1
    36   16   17 1
    37   18   19 1
    38   19   45 1
    39   19   46 1
    40   19   47 1
    41   20   21 1
    42   20   48 1
    43   20   49 1
    44   21   26 ar
    45   21   22 ar
    46   22   23 ar
    47   22   50 1
    48   23   24 ar
    49   23   51 1
    50   24   25 ar
    51   24   27 1
    52   25   26 ar
    53   25   52 1
    54   26   53 1
    55   27   28 1
    56   27   29 1
    57   27   30 1
@<TRIPOS>MOLECULE
CHEMBL582982__4
   54    57     0     0     0
SMALL
USER_CHARGES

@<TRIPOS>ATOM
      1 C1          1.3680    1.3638   -1.0292 C.3       1 <0>         0.0608
      2 N1          1.0073   -0.0337   -0.7780 N.pl3     1 <0>        -0.4463
      3 C2          0.7675   -1.0008   -1.7279 C.2       1 <0>         0.0380
      4 C3          0.4713   -2.1332   -1.0678 C.2       1 <0>         0.0467
      5 N2          0.5248   -1.8797    0.2509 N.pl3     1 <0>        -0.5172
      6 C4          0.8517   -0.6230    0.4380 C.cat     1 <0>         0.5807
      7 N3          1.0080   -0.0009    1.6655 N.pl3     1 <0>        -0.8038
      8 C5          0.1356   -3.4601   -1.6984 C.3       1 <0>         0.0279
      9 C6          1.2191   -3.8524   -2.7364 C.3       1 <0>        -0.1180
     10 C7          1.7675   -5.2383   -2.2930 C.3       1 <0>        -0.1142
     11 C8          0.6112   -5.8114   -1.4720 C.3       1 <0>        -0.0482
     12 C9          0.1689   -4.5651   -0.6532 C.3       1 <0>        -0.0714
     13 C10        -1.1084   -4.9268    0.0280 C.2       1 <0>        -0.1506
     14 C11        -1.1325   -6.1438    0.6038 C.2       1 <0>        -0.0742
     15 C12         0.0646   -7.0085    0.5449 C.2       1 <0>         0.0794
     16 C13         0.9435   -6.8743   -0.4753 C.2       1 <0>        -0.0595
     17 F1          2.0453   -7.6482   -0.5854 F         1 <0>        -0.1284
     18 O1          0.2824   -7.9381    1.5143 O.3       1 <0>        -0.3099
     19 C14         1.4599   -8.7386    1.3927 C.3       1 <0>         0.0222
     20 C15        -1.2414   -3.3984   -2.3625 C.3       1 <0>        -0.0745
     21 C16        -1.2799   -2.2463   -3.3331 C.ar      1 <0>        -0.0627
     22 C17        -1.7685   -1.0180   -2.9289 C.ar      1 <0>        -0.1190
     23 C18        -1.8037    0.0388   -3.8193 C.ar      1 <0>        -0.0716
     24 C19        -1.3500   -0.1325   -5.1137 C.ar      1 <0>        -0.1763
     25 C20        -0.8605   -1.3606   -5.5177 C.ar      1 <0>        -0.0618
     26 C21        -0.8213   -2.4163   -4.6261 C.ar      1 <0>        -0.1137
     27 C22        -1.3893    1.0193   -6.0847 C.3       1 <0>         0.5048
     28 F2         -0.1898    1.7351   -6.0080 F         1 <0>        -0.1764
     29 F3         -1.5572    0.5285   -7.3840 F         1 <0>        -0.1718
     30 F4         -2.4576    1.8637   -5.7635 F         1 <0>        -0.1744
     31 H1          2.4527    1.4542   -1.0879 H         1 <0>         0.1064
     32 H2          0.9249    1.6899   -1.9702 H         1 <0>         0.1192
     33 H3          0.9949    1.9871   -0.2166 H         1 <0>         0.1041
     34 H4          0.8092   -0.8736   -2.7996 H         1 <0>         0.2157
     35 H5          1.2496    0.9377    1.7063 H         1 <0>         0.4382
     36 H6          0.8758   -0.5037    2.4844 H         1 <0>         0.4390
     37 H7          0.7768   -3.9253   -3.7299 H         1 <0>         0.0942
     38 H8          2.0217   -3.1149   -2.7365 H         1 <0>         0.0807
     39 H9          1.9750   -5.8667   -3.1592 H         1 <0>         0.0882
     40 H10         2.6587   -5.1218   -1.6764 H         1 <0>         0.0775
     41 H11        -0.1887   -6.1491   -2.1308 H         1 <0>         0.1073
     42 H12         0.9237   -4.3351    0.0988 H         1 <0>         0.0888
     43 H13        -1.9557   -4.2578    0.0576 H         1 <0>         0.1464
     44 H14        -2.0241   -6.4870    1.1076 H         1 <0>         0.1450
     45 H15         2.3394   -8.0947    1.4015 H         1 <0>         0.0622
     46 H16         1.5124   -9.4368    2.2281 H         1 <0>         0.1003
     47 H17         1.4260   -9.2947    0.4559 H         1 <0>         0.0658
     48 H18        -1.4293   -4.3299   -2.8965 H         1 <0>         0.1053
     49 H19        -2.0067   -3.2564   -1.5994 H         1 <0>         0.0910
     50 H20        -2.1230   -0.8841   -1.9176 H         1 <0>         0.1286
     51 H21        -2.1861    0.9983   -3.5037 H         1 <0>         0.1377
     52 H22        -0.5063   -1.4946   -6.5291 H         1 <0>         0.1432
     53 H23        -0.4354   -3.3747   -4.9406 H         1 <0>         0.1432
     54 H24         0.3529   -2.5256    0.9539 H         1 <0>         0.4554
@<TRIPOS>BOND
     1    1    2 1
     2    1   31 1
     3    1   32 1
     4    1   33 1
     5    2    6 1
     6    2    3 1
     7    3    4 2
     8    3   34 1
     9    4    5 1
    10    4    8 1
    11    5    6 2
    12    5   54 1
    13    6    7 1
    14    7   35 1
    15    7   36 1
    16    8   12 1
    17    8    9 1
    18    8   20 1
    19    9   10 1
    20    9   37 1
    21    9   38 1
    22   10   11 1
    23   10   39 1
    24   10   40 1
    25   11   16 1
    26   11   12 1
    27   11   41 1
    28   12   13 1
    29   12   42 1
    30   13   14 2
    31   13   43 1
    32   14   15 1
    33   14   44 1
    34   15   16 2
    35   15   18 1
    36   16   17 1
    37   18   19 1
    38   19   45 1
    39   19   46 1
    40   19   47 1
    41   20   21 1
    42   20   48 1
    43   20   49 1
    44   21   26 ar
    45   21   22 ar
    46   22   23 ar
    47   22   50 1
    48   23   24 ar
    49   23   51 1
    50   24   25 ar
    51   24   27 1
    52   25   26 ar
    53   25   52 1
    54   26   53 1
    55   27   28 1
    56   27   29 1
    57   27   30 1
@<TRIPOS>MOLECULE
CHEMBL582982__5
   54    57     0     0     0
SMALL
USER_CHARGES

@<TRIPOS>ATOM
      1 C1          1.2173    1.1048    0.5862 C.3       1 <0>         0.0620
      2 N1          0.5141   -0.1334    0.2421 N.pl3     1 <0>        -0.4434
      3 C2          0.9303   -1.0884   -0.6578 C.2       1 <0>         0.0305
      4 C3         -0.0064   -2.0519   -0.6678 C.2       1 <0>         0.0614
      5 N2         -0.9750   -1.7083    0.1981 N.pl3     1 <0>        -0.5184
      6 C4         -0.6710   -0.5602    0.7557 C.cat     1 <0>         0.5807
      7 N3         -1.4299    0.1060    1.7036 N.pl3     1 <0>        -0.8049
      8 C5          0.0237   -3.3032   -1.5070 C.3       1 <0>         0.0228
      9 C6          1.2730   -3.3035   -2.4181 C.3       1 <0>        -0.1211
     10 C7          1.7143   -4.7910   -2.4423 C.3       1 <0>        -0.1208
     11 C8          1.4840   -5.2192   -0.9618 C.3       1 <0>        -0.0489
     12 C9          0.1558   -4.5390   -0.6082 C.3       1 <0>        -0.0504
     13 C10         0.0328   -4.2031    0.8369 C.2       1 <0>        -0.1537
     14 C11         1.0887   -3.9865    1.6085 C.2       1 <0>        -0.0716
     15 C12         2.4389   -4.0812    1.0302 C.2       1 <0>         0.0716
     16 C13         2.6195   -4.6478   -0.1579 C.2       1 <0>        -0.0386
     17 F1          3.8709   -4.7136   -0.6630 F         1 <0>        -0.1372
     18 O1          3.5057   -3.5864    1.7145 O.3       1 <0>        -0.3151
     19 C14         4.7878   -3.7111    1.0959 C.3       1 <0>         0.0223
     20 C15        -1.2474   -3.4004   -2.3530 C.3       1 <0>        -0.0775
     21 C16        -1.3038   -2.2377   -3.3101 C.ar      1 <0>        -0.0559
     22 C17        -1.8000   -1.0185   -2.8880 C.ar      1 <0>        -0.1228
     23 C18        -1.8518    0.0481   -3.7659 C.ar      1 <0>        -0.0654
     24 C19        -1.4070   -0.1046   -5.0658 C.ar      1 <0>        -0.1747
     25 C20        -0.9100   -1.3236   -5.4877 C.ar      1 <0>        -0.0589
     26 C21        -0.8543   -2.3889   -4.6086 C.ar      1 <0>        -0.1103
     27 C22        -1.4644    1.0578   -6.0232 C.3       1 <0>         0.5052
     28 F2         -0.2706    1.7834   -5.9479 F         1 <0>        -0.1748
     29 F3         -1.6385    0.5803   -7.3266 F         1 <0>        -0.1720
     30 F4         -2.5374    1.8889   -5.6839 F         1 <0>        -0.1754
     31 H1          1.8936    0.9188    1.4206 H         1 <0>         0.1056
     32 H2          1.7894    1.4492   -0.2753 H         1 <0>         0.1187
     33 H3          0.4923    1.8678    0.8693 H         1 <0>         0.1031
     34 H4          1.8368   -1.0671   -1.2445 H         1 <0>         0.2153
     35 H5         -1.1252    0.9556    2.0590 H         1 <0>         0.4379
     36 H6         -2.2660   -0.2769    2.0120 H         1 <0>         0.4383
     37 H7          1.0150   -2.9645   -3.4214 H         1 <0>         0.0947
     38 H8          2.0577   -2.6784   -1.9918 H         1 <0>         0.0764
     39 H9          1.0871   -5.3725   -3.1180 H         1 <0>         0.0887
     40 H10         2.7658   -4.8811   -2.7147 H         1 <0>         0.0893
     41 H11         1.4316   -6.3033   -0.8615 H         1 <0>         0.1126
     42 H12        -0.6534   -5.2259   -0.8561 H         1 <0>         0.1088
     43 H13        -0.9530   -4.1331    1.2726 H         1 <0>         0.1258
     44 H14         0.9594   -3.7422    2.6525 H         1 <0>         0.1368
     45 H15         4.7830   -3.1855    0.1409 H         1 <0>         0.0641
     46 H16         5.5483   -3.2777    1.7453 H         1 <0>         0.0939
     47 H17         5.0099   -4.7652    0.9294 H         1 <0>         0.0675
     48 H18        -1.2389   -4.3340   -2.9155 H         1 <0>         0.1062
     49 H19        -2.1205   -3.3770   -1.7010 H         1 <0>         0.0819
     50 H20        -2.1474   -0.8992   -1.8724 H         1 <0>         0.1153
     51 H21        -2.2400    1.0004   -3.4363 H         1 <0>         0.1350
     52 H22        -0.5629   -1.4429   -6.5034 H         1 <0>         0.1431
     53 H23        -0.4626   -3.3402   -4.9371 H         1 <0>         0.1426
     54 H24        -1.7716   -2.2293    0.3848 H         1 <0>         0.4536
@<TRIPOS>BOND
     1    1    2 1
     2    1   31 1
     3    1   32 1
     4    1   33 1
     5    2    6 1
     6    2    3 1
     7    3    4 2
     8    3   34 1
     9    4    5 1
    10    4    8 1
    11    5    6 2
    12    5   54 1
    13    6    7 1
    14    7   35 1
    15    7   36 1
    16    8   12 1
    17    8    9 1
    18    8   20 1
    19    9   10 1
    20    9   37 1
    21    9   38 1
    22   10   11 1
    23   10   39 1
    24   10   40 1
    25   11   16 1
    26   11   12 1
    27   11   41 1
    28   12   13 1
    29   12   42 1
    30   13   14 2
    31   13   43 1
    32   14   15 1
    33   14   44 1
    34   15   16 2
    35   15   18 1
    36   16   17 1
    37   18   19 1
    38   19   45 1
    39   19   46 1
    40   19   47 1
    41   20   21 1
    42   20   48 1
    43   20   49 1
    44   21   26 ar
    45   21   22 ar
    46   22   23 ar
    47   22   50 1
    48   23   24 ar
    49   23   51 1
    50   24   25 ar
    51   24   27 1
    52   25   26 ar
    53   25   52 1
    54   26   53 1
    55   27   28 1
    56   27   29 1
    57   27   30 1
@<TRIPOS>MOLECULE
CHEMBL582982__6
   54    57     0     0     0
SMALL
USER_CHARGES

@<TRIPOS>ATOM
      1 C1         -1.0008    0.1551    1.8479 C.3       1 <0>         0.0617
      2 N1         -0.3413   -0.5978    0.7781 N.pl3     1 <0>        -0.4468
      3 C2         -0.7663   -1.7882    0.2327 C.2       1 <0>         0.0236
      4 C3          0.1262   -2.1263   -0.7133 C.2       1 <0>         0.0580
      5 N2          1.0766   -1.1771   -0.7560 N.pl3     1 <0>        -0.5167
      6 C4          0.8038   -0.2501    0.1315 C.cat     1 <0>         0.5826
      7 N3          1.5562    0.8876    0.3718 N.pl3     1 <0>        -0.8035
      8 C5          0.0711   -3.3594   -1.5780 C.3       1 <0>         0.0212
      9 C6          1.2673   -3.3766   -2.5577 C.3       1 <0>        -0.1214
     10 C7          2.3279   -4.2472   -1.8329 C.3       1 <0>        -0.1262
     11 C8          1.4498   -5.3763   -1.2147 C.3       1 <0>        -0.0433
     12 C9          0.2149   -4.6178   -0.7131 C.3       1 <0>        -0.0422
     13 C10        -1.0226   -5.4454   -0.7085 C.2       1 <0>        -0.1383
     14 C11        -1.1917   -6.4754   -1.5257 C.2       1 <0>        -0.0781
     15 C12        -0.1242   -6.8280   -2.4756 C.2       1 <0>         0.0872
     16 C13         1.0941   -6.3174   -2.3327 C.2       1 <0>        -0.0599
     17 F1          2.0495   -6.6561   -3.2258 F         1 <0>        -0.1400
     18 O1         -0.3858   -7.6802   -3.5035 O.3       1 <0>        -0.3101
     19 C14         0.6952   -7.9801   -4.3887 C.3       1 <0>         0.0222
     20 C15        -1.2474   -3.4004   -2.3530 C.3       1 <0>        -0.0734
     21 C16        -1.3038   -2.2377   -3.3101 C.ar      1 <0>        -0.0570
     22 C17        -1.8000   -1.0185   -2.8880 C.ar      1 <0>        -0.1240
     23 C18        -1.8518    0.0481   -3.7659 C.ar      1 <0>        -0.0685
     24 C19        -1.4070   -0.1046   -5.0658 C.ar      1 <0>        -0.1772
     25 C20        -0.9100   -1.3236   -5.4877 C.ar      1 <0>        -0.0611
     26 C21        -0.8543   -2.3889   -4.6086 C.ar      1 <0>        -0.1117
     27 C22        -1.4644    1.0578   -6.0232 C.3       1 <0>         0.5052
     28 F2         -0.2706    1.7834   -5.9479 F         1 <0>        -0.1766
     29 F3         -1.6385    0.5803   -7.3266 F         1 <0>        -0.1720
     30 F4         -2.5374    1.8889   -5.6839 F         1 <0>        -0.1747
     31 H1         -1.7149    0.8544    1.4131 H         1 <0>         0.1057
     32 H2         -1.5248   -0.5356    2.5085 H         1 <0>         0.1205
     33 H3         -0.2532    0.7066    2.4181 H         1 <0>         0.1029
     34 H4         -1.6487   -2.3446    0.5122 H         1 <0>         0.2215
     35 H5          1.2769    1.5188    1.0533 H         1 <0>         0.4383
     36 H6          2.3625    1.0532   -0.1414 H         1 <0>         0.4391
     37 H7          0.9797   -3.8333   -3.5047 H         1 <0>         0.0967
     38 H8          1.6455   -2.3670   -2.7178 H         1 <0>         0.0640
     39 H9          3.0465   -4.6570   -2.5427 H         1 <0>         0.0909
     40 H10         2.8339   -3.6767   -1.0541 H         1 <0>         0.0748
     41 H11         1.9710   -5.8941   -0.4095 H         1 <0>         0.1099
     42 H12         0.4040   -4.3034    0.3133 H         1 <0>         0.0981
     43 H13        -1.8114   -5.1977   -0.0136 H         1 <0>         0.1368
     44 H14        -2.1049   -7.0512   -1.4944 H         1 <0>         0.1451
     45 H15         1.5082   -8.4399   -3.8267 H         1 <0>         0.0661
     46 H16         0.3522   -8.6688   -5.1608 H         1 <0>         0.0946
     47 H17         1.0498   -7.0603   -4.8538 H         1 <0>         0.0643
     48 H18        -1.3116   -4.3342   -2.9115 H         1 <0>         0.1034
     49 H19        -2.0816   -3.3367   -1.6544 H         1 <0>         0.0932
     50 H20        -2.1474   -0.8992   -1.8724 H         1 <0>         0.1266
     51 H21        -2.2400    1.0004   -3.4363 H         1 <0>         0.1355
     52 H22        -0.5629   -1.4429   -6.5034 H         1 <0>         0.1412
     53 H23        -0.4626   -3.3402   -4.9371 H         1 <0>         0.1373
     54 H24         1.8417   -1.1755   -1.3522 H         1 <0>         0.4547
@<TRIPOS>BOND
     1    1    2 1
     2    1   31 1
     3    1   32 1
     4    1   33 1
     5    2    6 1
     6    2    3 1
     7    3    4 2
     8    3   34 1
     9    4    5 1
    10    4    8 1
    11    5    6 2
    12    5   54 1
    13    6    7 1
    14    7   35 1
    15    7   36 1
    16    8   12 1
    17    8    9 1
    18    8   20 1
    19    9   10 1
    20    9   37 1
    21    9   38 1
    22   10   11 1
    23   10   39 1
    24   10   40 1
    25   11   16 1
    26   11   12 1
    27   11   41 1
    28   12   13 1
    29   12   42 1
    30   13   14 2
    31   13   43 1
    32   14   15 1
    33   14   44 1
    34   15   16 2
    35   15   18 1
    36   16   17 1
    37   18   19 1
    38   19   45 1
    39   19   46 1
    40   19   47 1
    41   20   21 1
    42   20   48 1
    43   20   49 1
    44   21   26 ar
    45   21   22 ar
    46   22   23 ar
    47   22   50 1
    48   23   24 ar
    49   23   51 1
    50   24   25 ar
    51   24   27 1
    52   25   26 ar
    53   25   52 1
    54   26   53 1
    55   27   28 1
    56   27   29 1
    57   27   30 1
@<TRIPOS>MOLECULE
CHEMBL582982__7
   54    57     0     0     0
SMALL
USER_CHARGES

@<TRIPOS>ATOM
      1 C1          1.4251    1.0545    0.5149 C.3       1 <0>         0.0616
      2 N1          0.6608   -0.1475    0.1723 N.pl3     1 <0>        -0.4449
      3 C2          1.0481   -1.1446   -0.6942 C.2       1 <0>         0.0294
      4 C3          0.0566   -2.0514   -0.7160 C.2       1 <0>         0.0584
      5 N2         -0.9170   -1.6327    0.1103 N.pl3     1 <0>        -0.5221
      6 C4         -0.5633   -0.4926    0.6547 C.cat     1 <0>         0.5815
      7 N3         -1.3111    0.2376    1.5635 N.pl3     1 <0>        -0.8039
      8 C5          0.0391   -3.3204   -1.5287 C.3       1 <0>         0.0269
      9 C6          1.2870   -3.3889   -2.4469 C.3       1 <0>        -0.1162
     10 C7          2.1291   -4.5980   -1.9503 C.3       1 <0>        -0.1153
     11 C8          1.6869   -4.7411   -0.4931 C.3       1 <0>        -0.0500
     12 C9          0.1504   -4.5332   -0.6168 C.3       1 <0>        -0.0661
     13 C10        -0.3835   -4.4196    0.7718 C.2       1 <0>        -0.1461
     14 C11         0.0974   -5.3184    1.6518 C.2       1 <0>        -0.0713
     15 C12         1.0733   -6.3345    1.2052 C.2       1 <0>         0.0798
     16 C13         1.8810   -6.0757    0.1508 C.2       1 <0>        -0.0559
     17 F1          2.7995   -6.9631   -0.2899 F         1 <0>        -0.1273
     18 O1          1.1591   -7.5280    1.8528 O.3       1 <0>        -0.3100
     19 C14         2.1249   -8.4621    1.3662 C.3       1 <0>         0.0221
     20 C15        -1.2414   -3.3984   -2.3625 C.3       1 <0>        -0.0792
     21 C16        -1.2882   -2.2367   -3.3212 C.ar      1 <0>        -0.0556
     22 C17        -1.7847   -1.0159   -2.9042 C.ar      1 <0>        -0.1247
     23 C18        -1.8275    0.0497   -3.7837 C.ar      1 <0>        -0.0653
     24 C19        -1.3735   -0.1053   -5.0801 C.ar      1 <0>        -0.1750
     25 C20        -0.8762   -1.3259   -5.4969 C.ar      1 <0>        -0.0579
     26 C21        -0.8293   -2.3904   -4.6161 C.ar      1 <0>        -0.1095
     27 C22        -1.4212    1.0561   -6.0392 C.3       1 <0>         0.5052
     28 F2         -0.2264    1.7790   -5.9558 F         1 <0>        -0.1749
     29 F3         -1.5866    0.5775   -7.3433 F         1 <0>        -0.1719
     30 F4         -2.4948    1.8900   -5.7087 F         1 <0>        -0.1754
     31 H1          2.0621    0.8473    1.3747 H         1 <0>         0.1060
     32 H2          2.0439    1.3458   -0.3339 H         1 <0>         0.1200
     33 H3          0.7380    1.8648    0.7586 H         1 <0>         0.1032
     34 H4          1.9725   -1.1894   -1.2508 H         1 <0>         0.2212
     35 H5         -0.9680    1.0753    1.9119 H         1 <0>         0.4385
     36 H6         -2.1779   -0.0888    1.8516 H         1 <0>         0.4389
     37 H7          0.9822   -3.5448   -3.4818 H         1 <0>         0.0953
     38 H8          1.8658   -2.4692   -2.3612 H         1 <0>         0.0799
     39 H9          1.8867   -5.4966   -2.5177 H         1 <0>         0.0848
     40 H10         3.1948   -4.3775   -2.0108 H         1 <0>         0.0861
     41 H11         2.1383   -3.9588    0.1170 H         1 <0>         0.0965
     42 H12        -0.2977   -5.3994   -1.1036 H         1 <0>         0.1132
     43 H13        -1.1067   -3.6680    1.0520 H         1 <0>         0.1220
     44 H14        -0.2289   -5.2964    2.6811 H         1 <0>         0.1413
     45 H15         3.1201   -8.0221    1.4300 H         1 <0>         0.0647
     46 H16         2.0893   -9.3691    1.9697 H         1 <0>         0.1006
     47 H17         1.9020   -8.7076    0.3279 H         1 <0>         0.0648
     48 H18        -1.2534   -4.3331   -2.9232 H         1 <0>         0.1062
     49 H19        -2.1078   -3.3597   -1.7022 H         1 <0>         0.0816
     50 H20        -2.1394   -0.8947   -1.8913 H         1 <0>         0.1145
     51 H21        -2.2161    1.0034   -3.4580 H         1 <0>         0.1350
     52 H22        -0.5218   -1.4472   -6.5098 H         1 <0>         0.1432
     53 H23        -0.4373   -3.3429   -4.9407 H         1 <0>         0.1422
     54 H24        -1.7487   -2.1019    0.2808 H         1 <0>         0.4539
@<TRIPOS>BOND
     1    1    2 1
     2    1   31 1
     3    1   32 1
     4    1   33 1
     5    2    6 1
     6    2    3 1
     7    3    4 2
     8    3   34 1
     9    4    5 1
    10    4    8 1
    11    5    6 2
    12    5   54 1
    13    6    7 1
    14    7   35 1
    15    7   36 1
    16    8   12 1
    17    8    9 1
    18    8   20 1
    19    9   10 1
    20    9   37 1
    21    9   38 1
    22   10   11 1
    23   10   39 1
    24   10   40 1
    25   11   16 1
    26   11   12 1
    27   11   41 1
    28   12   13 1
    29   12   42 1
    30   13   14 2
    31   13   43 1
    32   14   15 1
    33   14   44 1
    34   15   16 2
    35   15   18 1
    36   16   17 1
    37   18   19 1
    38   19   45 1
    39   19   46 1
    40   19   47 1
    41   20   21 1
    42   20   48 1
    43   20   49 1
    44   21   26 ar
    45   21   22 ar
    46   22   23 ar
    47   22   50 1
    48   23   24 ar
    49   23   51 1
    50   24   25 ar
    51   24   27 1
    52   25   26 ar
    53   25   52 1
    54   26   53 1
    55   27   28 1
    56   27   29 1
    57   27   30 1
@<TRIPOS>MOLECULE
CHEMBL201155
   73    76     0     0     0
SMALL
USER_CHARGES

@<TRIPOS>ATOM
      1 C1         -1.2849    0.4998   -0.4839 C.3       1 <0>         0.0740
      2 N1          0.0021   -0.0041    0.0020 N.pl3     1 <0>        -0.9557
      3 C2          0.0431   -0.8872    1.0838 C.ar      1 <0>         0.1615
      4 C3          0.7593   -0.5528    2.2275 C.ar      1 <0>        -0.1011
      5 C4          0.8025   -1.4229    3.3004 C.ar      1 <0>        -0.0575
      6 C5          0.1349   -2.6296    3.2438 C.ar      1 <0>        -0.0578
      7 C6         -0.5871   -2.9748    2.1003 C.ar      1 <0>        -0.1277
      8 C7         -0.6352   -2.0946    1.0192 C.ar      1 <0>        -0.0948
      9 C8         -1.3028   -4.2672    2.0370 C.2       1 <0>         0.5662
     10 O1         -1.2630   -5.0309    2.9818 O.2       1 <0>        -0.5307
     11 N2         -1.9993   -4.5983    0.9317 N.am      1 <0>        -0.7211
     12 C9         -2.7084   -5.8788    0.8689 C.3       1 <0>         0.1238
     13 H1         -3.0978   -6.1271    1.8562 H         1 <0>         0.1150
     14 C10        -3.8672   -5.7719   -0.1244 C.3       1 <0>        -0.0908
     15 C11        -4.8792   -4.7804    0.3892 C.ar      1 <0>        -0.0950
     16 C12        -5.9127   -5.2062    1.2025 C.ar      1 <0>        -0.1115
     17 C13        -6.8411   -4.2967    1.6736 C.ar      1 <0>        -0.1129
     18 C14        -6.7357   -2.9615    1.3318 C.ar      1 <0>        -0.1122
     19 C15        -5.7016   -2.5356    0.5193 C.ar      1 <0>        -0.1142
     20 C16        -4.7708   -3.4443    0.0516 C.ar      1 <0>        -0.1137
     21 C17        -1.7434   -6.9742    0.4109 C.3       1 <0>         0.0705
     22 H2         -1.3540   -6.7258   -0.5763 H         1 <0>         0.0837
     23 C18        -0.5846   -7.0811    1.4043 C.3       1 <0>         0.0058
     24 N3          0.4019   -8.0476    0.9036 N.4       1 <0>        -0.4775
     25 C19         1.5145   -8.1502    1.8573 C.3       1 <0>        -0.0827
     26 C20         2.8991   -7.7102    1.3775 C.3       1 <0>        -0.1544
     27 C21         2.5940   -9.1966    1.5736 C.3       1 <0>        -0.1533
     28 O2         -2.4351   -8.2232    0.3498 O.3       1 <0>        -0.5621
     29 C22         1.5816   -1.0530    4.5362 C.3       1 <0>        -0.0830
     30 C23         0.6694   -0.3027    5.5087 C.3       1 <0>        -0.0838
     31 C24         1.4604    0.0729    6.7633 C.3       1 <0>        -0.1585
     32 C25         1.0167   -0.5468    8.0900 C.3       1 <0>        -0.1797
     33 C26         0.7544    0.9347    7.8120 C.3       1 <0>        -0.1800
     34 S1          1.4082    0.4732   -0.7310 S.o2      1 <0>         2.6002
     35 O3          2.3604   -0.5173   -0.3684 O.2       1 <0>        -0.9415
     36 O4          1.0565    0.6758   -2.0928 O.2       1 <0>        -0.9416
     37 C27         1.8262    2.0568    0.0486 C.3       1 <0>        -0.6719
     38 H3         -1.5368    1.4204    0.0426 H         1 <0>         0.0676
     39 H4         -1.2165    0.6998   -1.5532 H         1 <0>         0.0946
     40 H5         -2.0589   -0.2459   -0.3025 H         1 <0>         0.0804
     41 H6          1.2840    0.3898    2.2775 H         1 <0>         0.1301
     42 H7          0.1714   -3.3068    4.0843 H         1 <0>         0.1418
     43 H8         -1.1956   -2.3545    0.1333 H         1 <0>         0.1290
     44 H9         -2.0310   -3.9889    0.1777 H         1 <0>         0.4072
     45 H10        -3.4883   -5.4372   -1.0900 H         1 <0>         0.0864
     46 H11        -4.3396   -6.7476   -0.2379 H         1 <0>         0.0955
     47 H12        -5.9951   -6.2494    1.4696 H         1 <0>         0.1225
     48 H13        -7.6490   -4.6295    2.3085 H         1 <0>         0.1261
     49 H14        -7.4614   -2.2510    1.6993 H         1 <0>         0.1257
     50 H15        -5.6195   -1.4924    0.2519 H         1 <0>         0.1246
     51 H16        -3.9608   -3.1110   -0.5802 H         1 <0>         0.1154
     52 H17        -0.1122   -6.1054    1.5177 H         1 <0>         0.1424
     53 H18        -0.9635   -7.4158    2.3699 H         1 <0>         0.1479
     54 H19        -0.0354   -8.9508    0.7986 H         1 <0>         0.4337
     55 H20         1.2590   -7.9606    2.8999 H         1 <0>         0.1779
     56 H21         2.9845   -7.3447    0.3542 H         1 <0>         0.1201
     57 H22         3.5549   -7.2309    2.1044 H         1 <0>         0.1340
     58 H23         3.0490   -9.6952    2.4294 H         1 <0>         0.1342
     59 H24         2.4786   -9.8090    0.6792 H         1 <0>         0.1205
     60 H25        -3.1839   -8.2285   -0.2620 H         1 <0>         0.4045
     61 H26         1.9560   -1.9582    5.0142 H         1 <0>         0.0825
     62 H27         2.4207   -0.4147    4.2592 H         1 <0>         0.0810
     63 H28         0.2950    0.6026    5.0307 H         1 <0>         0.0683
     64 H29        -0.1697   -0.9409    5.7856 H         1 <0>         0.0673
     65 H30         2.5281    0.2344    6.6151 H         1 <0>         0.1060
     66 H31         0.1612   -1.2219    8.0690 H         1 <0>         0.0937
     67 H32         1.7926   -0.7931    8.8149 H         1 <0>         0.0944
     68 H33         1.3577    1.6630    8.3539 H         1 <0>         0.0957
     69 H34        -0.2736    1.2342    7.6080 H         1 <0>         0.0940
     70 H35         1.9599    1.9101    1.1204 H         1 <0>         0.1293
     71 H36         2.7499    2.4419   -0.3834 H         1 <0>         0.1371
     72 H37         1.0200    2.7701   -0.1226 H         1 <0>         0.1338
     73 H38         0.7527   -7.7377    0.0097 H         1 <0>         0.4208
@<TRIPOS>BOND
     1    1    2 1
     2    1   38 1
     3    1   39 1
     4    1   40 1
     5    2    3 1
     6    2   34 1
     7    3    8 ar
     8    3    4 ar
     9    4    5 ar
    10    4   41 1
    11    5    6 ar
    12    5   29 1
    13    6    7 ar
    14    6   42 1
    15    7    8 ar
    16    7    9 1
    17    8   43 1
    18    9   10 2
    19    9   11 am
    20   11   12 1
    21   11   44 1
    22   12   13 1
    23   12   14 1
    24   12   21 1
    25   14   15 1
    26   14   45 1
    27   14   46 1
    28   15   20 ar
    29   15   16 ar
    30   16   17 ar
    31   16   47 1
    32   17   18 ar
    33   17   48 1
    34   18   19 ar
    35   18   49 1
    36   19   20 ar
    37   19   50 1
    38   20   51 1
    39   21   22 1
    40   21   23 1
    41   21   28 1
    42   23   24 1
    43   23   52 1
    44   23   53 1
    45   24   25 1
    46   24   54 1
    47   24   73 1
    48   25   27 1
    49   25   26 1
    50   25   55 1
    51   26   27 1
    52   26   56 1
    53   26   57 1
    54   27   58 1
    55   27   59 1
    56   28   60 1
    57   29   30 1
    58   29   61 1
    59   29   62 1
    60   30   31 1
    61   30   63 1
    62   30   64 1
    63   31   33 1
    64   31   32 1
    65   31   65 1
    66   32   33 1
    67   32   66 1
    68   32   67 1
    69   33   68 1
    70   33   69 1
    71   34   35 2
    72   34   36 2
    73   34   37 1
    74   37   70 1
    75   37   71 1
    76   37   72 1
@<TRIPOS>MOLECULE
CHEMBL501068
   92    94     0     0     0
SMALL
USER_CHARGES

@<TRIPOS>ATOM
      1 C1         -0.0187    1.5258    0.0104 C.3       1 <0>        -0.1680
      2 C2          0.0021   -0.0041    0.0020 C.3       1 <0>         0.1212
      3 N1          0.7106   -0.4894    1.1889 N.pl3     1 <0>        -0.7457
      4 C3          0.8590   -1.8622    1.4012 C.ar      1 <0>         0.2369
      5 C4          0.3400   -2.7651    0.4846 C.ar      1 <0>        -0.1914
      6 C5          0.4890   -4.1355    0.6971 C.ar      1 <0>        -0.0596
      7 C6          1.1598   -4.5934    1.8314 C.ar      1 <0>        -0.1455
      8 C7          1.6762   -3.6852    2.7437 C.ar      1 <0>         0.2208
      9 C8          1.5306   -2.3213    2.5263 C.ar      1 <0>        -0.2003
     10 N2          2.3477   -4.1429    3.8800 N.pl3     1 <0>        -0.9357
     11 C9          2.4215   -3.3234    5.0988 C.3       1 <0>         0.1002
     12 C10         3.8852   -3.0942    5.4705 C.3       1 <0>        -0.1587
     13 C11         4.5623   -4.4130    5.8360 C.3       1 <0>        -0.1152
     14 C12         4.7379   -5.2716    4.5780 C.3       1 <0>        -0.6080
     15 S1          3.0834   -5.6358    3.8993 S.o2      1 <0>         2.5832
     16 O1          2.3265   -6.4085    4.8208 O.2       1 <0>        -0.9375
     17 O2          3.1805   -6.0172    2.5339 O.2       1 <0>        -0.9371
     18 C13        -0.0633   -5.1009   -0.2774 C.2       1 <0>         0.5636
     19 O3          0.0673   -6.2949   -0.0909 O.2       1 <0>        -0.4956
     20 N3         -0.7115   -4.6569   -1.3725 N.am      1 <0>        -0.7249
     21 C14        -1.2586   -5.6133   -2.3380 C.3       1 <0>         0.1272
     22 H1         -0.5996   -6.4788   -2.4054 H         1 <0>         0.1095
     23 C15        -2.6468   -6.0638   -1.8788 C.3       1 <0>        -0.1005
     24 C16        -2.5247   -6.8283   -0.5859 C.ar      1 <0>        -0.0800
     25 C17        -2.3355   -8.1974   -0.6076 C.ar      1 <0>        -0.1071
     26 C18        -2.2235   -8.8986    0.5784 C.ar      1 <0>        -0.1112
     27 C19        -2.3002   -8.2306    1.7862 C.ar      1 <0>        -0.1100
     28 C20        -2.4885   -6.8613    1.8079 C.ar      1 <0>        -0.1086
     29 C21        -2.5962   -6.1595    0.6219 C.ar      1 <0>        -0.1051
     30 C22        -1.3670   -4.9466   -3.7108 C.3       1 <0>         0.0772
     31 H2         -0.3946   -4.5469   -3.9984 H         1 <0>         0.1328
     32 C23        -1.8200   -5.9793   -4.7449 C.3       1 <0>        -0.0556
     33 N4         -1.8089   -5.3708   -6.0819 N.4       1 <0>        -0.4986
     34 C24        -2.2439   -6.3622   -7.0748 C.3       1 <0>         0.0558
     35 C25        -1.2912   -7.5592   -7.0513 C.3       1 <0>        -0.1817
     36 C26        -3.6610   -6.8317   -6.7398 C.3       1 <0>        -0.1806
     37 C27        -2.2323   -5.7285   -8.4673 C.3       1 <0>        -0.1368
     38 C28        -2.6853   -6.7611   -9.5014 C.3       1 <0>        -0.1221
     39 C29        -2.6738   -6.1274  -10.8939 C.3       1 <0>        -0.1167
     40 C30        -3.1268   -7.1600  -11.9280 C.3       1 <0>        -0.0973
     41 C31        -3.2351   -6.4933  -13.3008 C.3       1 <0>        -0.1526
     42 C32        -2.1064   -8.2982  -11.9929 C.3       1 <0>        -0.1523
     43 O4         -2.3200   -3.8835   -3.6502 O.3       1 <0>        -0.5498
     44 H3          1.0039    1.9031    0.0027 H         1 <0>         0.0633
     45 H4         -0.5459    1.8868   -0.8726 H         1 <0>         0.0743
     46 H5         -0.5289    1.8773    0.9072 H         1 <0>         0.0638
     47 H6         -1.0205   -0.3814    0.0098 H         1 <0>         0.0593
     48 H7          0.5123   -0.3556   -0.8948 H         1 <0>         0.0581
     49 H8          1.0768    0.1425    1.8273 H         1 <0>         0.4028
     50 H9         -0.1791   -2.4073   -0.3923 H         1 <0>         0.1227
     51 H10         1.2766   -5.6539    1.9992 H         1 <0>         0.1462
     52 H11         1.9373   -1.6161    3.2361 H         1 <0>         0.1325
     53 H12         1.9372   -2.3633    4.9209 H         1 <0>         0.1017
     54 H13         1.9160   -3.8396    5.9149 H         1 <0>         0.0909
     55 H14         4.4049   -2.6466    4.6233 H         1 <0>         0.0814
     56 H15         3.9374   -2.4158    6.3220 H         1 <0>         0.1008
     57 H16         5.5390   -4.2095    6.2752 H         1 <0>         0.0951
     58 H17         3.9459   -4.9491    6.5576 H         1 <0>         0.0867
     59 H18         5.3284   -4.7271    3.8412 H         1 <0>         0.1382
     60 H19         5.2408   -6.2034    4.8366 H         1 <0>         0.1394
     61 H20        -0.8157   -3.7041   -1.5214 H         1 <0>         0.4051
     62 H21        -3.2803   -5.1901   -1.7259 H         1 <0>         0.0815
     63 H22        -3.0907   -6.7057   -2.6399 H         1 <0>         0.0774
     64 H23        -2.2756   -8.7193   -1.5512 H         1 <0>         0.1112
     65 H24        -2.0764   -9.9684    0.5614 H         1 <0>         0.1195
     66 H25        -2.2134   -8.7785    2.7128 H         1 <0>         0.1207
     67 H26        -2.5488   -6.3394    2.7516 H         1 <0>         0.1184
     68 H27        -2.7396   -5.0892    0.6388 H         1 <0>         0.1109
     69 H28        -1.1413   -6.8320   -4.7282 H         1 <0>         0.1490
     70 H29        -2.8296   -6.3137   -4.5063 H         1 <0>         0.1433
     71 H30        -2.4372   -4.5814   -6.0974 H         1 <0>         0.4303
     72 H31        -1.2994   -8.0107   -6.0593 H         1 <0>         0.0824
     73 H32        -1.6139   -8.2949   -7.7880 H         1 <0>         0.1090
     74 H33        -0.2816   -7.2248   -7.2900 H         1 <0>         0.0834
     75 H34        -4.3397   -5.9789   -6.7565 H         1 <0>         0.0832
     76 H35        -3.9837   -7.5674   -7.4765 H         1 <0>         0.1092
     77 H36        -3.6692   -7.2832   -5.7477 H         1 <0>         0.0812
     78 H37        -2.9110   -4.8757   -8.4840 H         1 <0>         0.0880
     79 H38        -1.2227   -5.3940   -8.7059 H         1 <0>         0.0880
     80 H39        -2.0066   -7.6139   -9.4847 H         1 <0>         0.0790
     81 H40        -3.6949   -7.0956   -9.2627 H         1 <0>         0.0758
     82 H41        -3.3525   -5.2746  -10.9106 H         1 <0>         0.0658
     83 H42        -1.6642   -5.7929  -11.1326 H         1 <0>         0.0663
     84 H43        -4.0992   -7.5597  -11.6404 H         1 <0>         0.0706
     85 H44        -2.2627   -6.0936  -13.5884 H         1 <0>         0.0559
     86 H45        -3.5579   -7.2290  -14.0375 H         1 <0>         0.0590
     87 H46        -3.9621   -5.6824  -13.2546 H         1 <0>         0.0555
     88 H47        -2.0292   -8.7732  -11.0148 H         1 <0>         0.0528
     89 H48        -2.4292   -9.0339  -12.7296 H         1 <0>         0.0584
     90 H49        -1.1340   -7.8985  -12.2804 H         1 <0>         0.0557
     91 H50        -3.2099   -4.1669   -3.3996 H         1 <0>         0.3909
     92 H51        -0.8744   -5.0612   -6.3028 H         1 <0>         0.4268
@<TRIPOS>BOND
     1    1    2 1
     2    1   44 1
     3    1   45 1
     4    1   46 1
     5    2    3 1
     6    2   47 1
     7    2   48 1
     8    3    4 1
     9    3   49 1
    10    4    9 ar
    11    4    5 ar
    12    5    6 ar
    13    5   50 1
    14    6    7 ar
    15    6   18 1
    16    7    8 ar
    17    7   51 1
    18    8    9 ar
    19    8   10 1
    20    9   52 1
    21   10   15 1
    22   10   11 1
    23   11   12 1
    24   11   53 1
    25   11   54 1
    26   12   13 1
    27   12   55 1
    28   12   56 1
    29   13   14 1
    30   13   57 1
    31   13   58 1
    32   14   15 1
    33   14   59 1
    34   14   60 1
    35   15   16 2
    36   15   17 2
    37   18   19 2
    38   18   20 am
    39   20   21 1
    40   20   61 1
    41   21   22 1
    42   21   23 1
    43   21   30 1
    44   23   24 1
    45   23   62 1
    46   23   63 1
    47   24   29 ar
    48   24   25 ar
    49   25   26 ar
    50   25   64 1
    51   26   27 ar
    52   26   65 1
    53   27   28 ar
    54   27   66 1
    55   28   29 ar
    56   28   67 1
    57   29   68 1
    58   30   31 1
    59   30   32 1
    60   30   43 1
    61   32   33 1
    62   32   69 1
    63   32   70 1
    64   33   34 1
    65   33   71 1
    66   33   92 1
    67   34   35 1
    68   34   36 1
    69   34   37 1
    70   35   72 1
    71   35   73 1
    72   35   74 1
    73   36   75 1
    74   36   76 1
    75   36   77 1
    76   37   38 1
    77   37   78 1
    78   37   79 1
    79   38   39 1
    80   38   80 1
    81   38   81 1
    82   39   40 1
    83   39   82 1
    84   39   83 1
    85   40   41 1
    86   40   42 1
    87   40   84 1
    88   41   85 1
    89   41   86 1
    90   41   87 1
    91   42   88 1
    92   42   89 1
    93   42   90 1
    94   43   91 1
@<TRIPOS>MOLECULE
CHEMBL254138
   77    80     0     0     0
SMALL
USER_CHARGES

@<TRIPOS>ATOM
      1 C1         -0.0188    1.5256   -0.0382 C.3       1 <0>        -0.1680
      2 C2          0.0020   -0.0042   -0.0285 C.3       1 <0>         0.1216
      3 N1         -1.3724   -0.5112   -0.0180 N.pl3     1 <0>        -0.7460
      4 C3         -1.6090   -1.8881   -0.0079 C.ar      1 <0>         0.2383
      5 C4         -0.5418   -2.7745   -0.0020 C.ar      1 <0>        -0.1947
      6 C5         -0.7792   -4.1488    0.0086 C.ar      1 <0>        -0.0650
      7 C6         -2.0898   -4.6271    0.0131 C.ar      1 <0>        -0.1518
      8 C7         -3.1516   -3.7355    0.0072 C.ar      1 <0>         0.2104
      9 C8         -2.9119   -2.3678    0.0020 C.ar      1 <0>        -0.2103
     10 N2         -4.4665   -4.2146    0.0113 N.am      1 <0>        -0.5620
     11 C9         -5.6575   -3.3639    0.1202 C.3       1 <0>         0.0940
     12 C10        -6.8369   -4.2438   -0.3503 C.3       1 <0>        -0.1324
     13 C11        -6.3058   -5.6661   -0.0570 C.3       1 <0>        -0.1544
     14 C12        -4.8012   -5.5126   -0.0897 C.2       1 <0>         0.5151
     15 O1         -4.0116   -6.4277   -0.1899 O.2       1 <0>        -0.4974
     16 C13         0.3557   -5.0969    0.0144 C.2       1 <0>         0.5640
     17 O2          0.1472   -6.2943    0.0236 O.2       1 <0>        -0.4957
     18 N3          1.6211   -4.6332    0.0095 N.am      1 <0>        -0.7254
     19 C14         2.7454   -5.5724    0.0153 C.3       1 <0>         0.1277
     20 H1          2.4852   -6.4469    0.6116 H         1 <0>         0.1099
     21 C15         3.0546   -6.0066   -1.4188 C.3       1 <0>        -0.1012
     22 C16         1.8880   -6.7847   -1.9707 C.ar      1 <0>        -0.0803
     23 C17         1.8327   -8.1562   -1.8074 C.ar      1 <0>        -0.1074
     24 C18         0.7626   -8.8700   -2.3136 C.ar      1 <0>        -0.1111
     25 C19        -0.2525   -8.2121   -2.9827 C.ar      1 <0>        -0.1073
     26 C20        -0.1977   -6.8404   -3.1452 C.ar      1 <0>        -0.1056
     27 C21         0.8703   -6.1262   -2.6353 C.ar      1 <0>        -0.1046
     28 C22         3.9757   -4.8915    0.6185 C.3       1 <0>         0.0754
     29 H2          3.7284   -4.5036    1.6066 H         1 <0>         0.1336
     30 C23         5.1130   -5.9077    0.7395 C.3       1 <0>        -0.0470
     31 N4          6.2531   -5.2871    1.4273 N.4       1 <0>        -0.5021
     32 C24         7.3451   -6.2628    1.5436 C.3       1 <0>         0.0579
     33 C25         8.5146   -5.6261    2.2492 C.ar      1 <0>         0.0864
     34 C26         8.6636   -5.7958    3.6115 C.ar      1 <0>        -0.1774
     35 C27         9.7429   -5.2067    4.2551 C.ar      1 <0>        -0.0341
     36 C28        10.6365   -4.4654    3.5015 C.ar      1 <0>        -0.1528
     37 C29        10.4242   -4.3369    2.1351 C.ar      1 <0>         0.3360
     38 N5          9.3862   -4.9180    1.5567 N.ar      1 <0>        -0.5281
     39 O3         11.2927   -3.6125    1.3854 O.3       1 <0>        -0.2965
     40 C30        11.0194   -3.5180   -0.0140 C.3       1 <0>         0.0371
     41 O4          4.3867   -3.8150   -0.2267 O.3       1 <0>        -0.5498
     42 H3          1.0038    1.9029   -0.0460 H         1 <0>         0.0744
     43 H4         -0.5422    1.8762   -0.9278 H         1 <0>         0.0639
     44 H5         -0.5328    1.8877    0.8521 H         1 <0>         0.0635
     45 H6          0.5161   -0.3663   -0.9189 H         1 <0>         0.0589
     46 H7          0.5254   -0.3548    0.8610 H         1 <0>         0.0578
     47 H8         -2.1182    0.1091   -0.0181 H         1 <0>         0.4026
     48 H9          0.4715   -2.4008   -0.0059 H         1 <0>         0.1211
     49 H10        -2.2771   -5.6907    0.0210 H         1 <0>         0.1670
     50 H11        -3.7409   -1.6756    0.0015 H         1 <0>         0.1293
     51 H12        -5.8069   -3.0547    1.1547 H         1 <0>         0.0841
     52 H13        -5.5576   -2.4908   -0.5246 H         1 <0>         0.0878
     53 H14        -7.7352   -4.0353    0.2308 H         1 <0>         0.0996
     54 H15        -7.0233   -4.1090   -1.4158 H         1 <0>         0.0878
     55 H16        -6.6375   -6.0021    0.9254 H         1 <0>         0.1124
     56 H17        -6.6324   -6.3621   -0.8296 H         1 <0>         0.1101
     57 H18         1.7875   -3.6776    0.0022 H         1 <0>         0.4048
     58 H19         3.2279   -5.1250   -2.0360 H         1 <0>         0.0810
     59 H20         3.9454   -6.6347   -1.4242 H         1 <0>         0.0788
     60 H21         2.6258   -8.6702   -1.2846 H         1 <0>         0.1114
     61 H22         0.7197   -9.9416   -2.1866 H         1 <0>         0.1191
     62 H23        -1.0883   -8.7698   -3.3788 H         1 <0>         0.1194
     63 H24        -0.9906   -6.3265   -3.6682 H         1 <0>         0.1161
     64 H25         0.9113   -5.0541   -2.7590 H         1 <0>         0.1093
     65 H26         4.7701   -6.7705    1.3105 H         1 <0>         0.1506
     66 H27         5.4203   -6.2294   -0.2555 H         1 <0>         0.1438
     67 H28         6.5705   -4.4884    0.8988 H         1 <0>         0.4355
     68 H29         7.0021   -7.1256    2.1146 H         1 <0>         0.1503
     69 H30         7.6524   -6.5844    0.5485 H         1 <0>         0.1475
     70 H31         7.9476   -6.3804    4.1702 H         1 <0>         0.1483
     71 H32         9.8822   -5.3238    5.3196 H         1 <0>         0.1574
     72 H33        11.4873   -3.9930    3.9699 H         1 <0>         0.1572
     73 H34        11.0164   -4.5162   -0.4519 H         1 <0>         0.0630
     74 H35        10.0450   -3.0529   -0.1633 H         1 <0>         0.0601
     75 H36        11.7883   -2.9128   -0.4943 H         1 <0>         0.1067
     76 H37         4.6226   -4.0875   -1.1240 H         1 <0>         0.3918
     77 H38         5.9686   -4.9893    2.3485 H         1 <0>         0.4287
@<TRIPOS>BOND
     1    1    2 1
     2    1   42 1
     3    1   43 1
     4    1   44 1
     5    2    3 1
     6    2   45 1
     7    2   46 1
     8    3    4 1
     9    3   47 1
    10    4    9 ar
    11    4    5 ar
    12    5    6 ar
    13    5   48 1
    14    6    7 ar
    15    6   16 1
    16    7    8 ar
    17    7   49 1
    18    8    9 ar
    19    8   10 1
    20    9   50 1
    21   10   14 am
    22   10   11 1
    23   11   12 1
    24   11   51 1
    25   11   52 1
    26   12   13 1
    27   12   53 1
    28   12   54 1
    29   13   14 1
    30   13   55 1
    31   13   56 1
    32   14   15 2
    33   16   17 2
    34   16   18 am
    35   18   19 1
    36   18   57 1
    37   19   20 1
    38   19   21 1
    39   19   28 1
    40   21   22 1
    41   21   58 1
    42   21   59 1
    43   22   27 ar
    44   22   23 ar
    45   23   24 ar
    46   23   60 1
    47   24   25 ar
    48   24   61 1
    49   25   26 ar
    50   25   62 1
    51   26   27 ar
    52   26   63 1
    53   27   64 1
    54   28   29 1
    55   28   30 1
    56   28   41 1
    57   30   31 1
    58   30   65 1
    59   30   66 1
    60   31   32 1
    61   31   67 1
    62   31   77 1
    63   32   33 1
    64   32   68 1
    65   32   69 1
    66   33   38 ar
    67   33   34 ar
    68   34   35 ar
    69   34   70 1
    70   35   36 ar
    71   35   71 1
    72   36   37 ar
    73   36   72 1
    74   37   38 ar
    75   37   39 1
    76   39   40 1
    77   40   73 1
    78   40   74 1
    79   40   75 1
    80   41   76 1
@<TRIPOS>MOLECULE
CHEMBL575567
   46    50     0     0     0
SMALL
USER_CHARGES

@<TRIPOS>ATOM
      1 C1         -0.0167    1.3782    0.0096 C.ar      1 <0>        -0.1139
      2 C2          1.1712    2.0850    0.0021 C.ar      1 <0>        -0.1041
      3 C3          2.3785    1.4143   -0.0292 C.ar      1 <0>        -0.1261
      4 C4          2.4084    0.0241   -0.0443 C.ar      1 <0>         0.1237
      5 C5          1.2119   -0.6843   -0.0090 C.ar      1 <0>         0.1474
      6 C6          0.0021   -0.0041    0.0020 C.ar      1 <0>        -0.1107
      7 N1          1.2099   -2.0835    0.0615 N.pl3     1 <0>        -0.7249
      8 C7          1.7983   -2.7093    1.1547 C.ar      1 <0>         0.1939
      9 C8          1.0368   -3.5270    1.9770 C.ar      1 <0>        -0.0928
     10 C9          1.6149   -4.1180    3.0971 C.ar      1 <0>        -0.0667
     11 C10         2.9595   -3.8850    3.3938 C.ar      1 <0>        -0.0795
     12 C11         3.7229   -3.0887    2.5717 C.ar      1 <0>        -0.0607
     13 C12         3.1577   -2.5076    1.4313 C.ar      1 <0>        -0.1346
     14 C13         4.0015   -1.7258    0.5181 C.2       1 <0>         0.5723
     15 O1          5.1342   -2.1261    0.3319 O.2       1 <0>        -0.5311
     16 N2          3.6393   -0.6253   -0.1202 N.am      1 <0>        -0.6506
     17 C14         0.8030   -4.9944    3.9752 C.2       1 <0>         0.5455
     18 O2         -0.3707   -5.1974    3.7164 O.2       1 <0>        -0.5899
     19 N3          1.3574   -5.5612    5.0493 N.2       1 <0>        -0.6630
     20 C15         0.6286   -6.3478    5.8375 C.2       1 <0>         0.6183
     21 N4         -0.6816   -6.6601    5.6617 N.pl3     1 <0>        -0.5897
     22 H1         -1.2516   -6.3495    4.9409 H         1 <0>         0.4504
     23 C16        -1.0596   -7.5043    6.6994 C.2       1 <0>         0.0463
     24 C17         0.0147   -7.6944    7.4876 C.2       1 <0>         0.0319
     25 N5          1.0667   -6.9838    6.9556 N.pl3     1 <0>        -0.5699
     26 C18        -2.4024   -8.0884    6.9017 C.ar      1 <0>         0.0246
     27 C19        -3.4458   -7.8206    6.0071 C.ar      1 <0>        -0.1665
     28 C20        -4.6824   -8.3863    6.2341 C.ar      1 <0>         0.1128
     29 N6         -4.8886   -9.1693    7.2765 N.ar      1 <0>        -0.4827
     30 C21        -3.9332   -9.4474    8.1436 C.ar      1 <0>         0.1106
     31 C22        -2.6648   -8.9294    7.9900 C.ar      1 <0>        -0.1578
     32 H2         -0.9590    1.9056    0.0259 H         1 <0>         0.1310
     33 H3          1.1554    3.1647    0.0204 H         1 <0>         0.1319
     34 H4          3.3033    1.9721   -0.0417 H         1 <0>         0.1321
     35 H5         -0.9264   -0.5557    0.0050 H         1 <0>         0.1324
     36 H6          0.8029   -2.6096   -0.6444 H         1 <0>         0.4128
     37 H7         -0.0037   -3.7046    1.7487 H         1 <0>         0.1420
     38 H8          3.4017   -4.3314    4.2722 H         1 <0>         0.1493
     39 H9          4.7619   -2.9115    2.8074 H         1 <0>         0.1400
     40 H10         4.3027   -0.2267   -0.7049 H         1 <0>         0.4099
     41 H11         1.9656   -6.9426    7.3177 H         1 <0>         0.4498
     42 H12         0.0469   -8.3020    8.3799 H         1 <0>         0.2037
     43 H13        -3.2845   -7.1803    5.1525 H         1 <0>         0.1340
     44 H14        -5.4935   -8.1858    5.5498 H         1 <0>         0.1621
     45 H15        -4.1468  -10.0932    8.9825 H         1 <0>         0.1637
     46 H16        -1.8866   -9.1652    8.7007 H         1 <0>         0.1425
@<TRIPOS>BOND
     1    1    6 ar
     2    1    2 ar
     3    1   32 1
     4    2    3 ar
     5    2   33 1
     6    3    4 ar
     7    3   34 1
     8    4   16 1
     9    4    5 ar
    10    5    6 ar
    11    5    7 1
    12    6   35 1
    13    7    8 1
    14    7   36 1
    15    8   13 ar
    16    8    9 ar
    17    9   10 ar
    18    9   37 1
    19   10   11 ar
    20   10   17 1
    21   11   12 ar
    22   11   38 1
    23   12   13 ar
    24   12   39 1
    25   13   14 1
    26   14   15 2
    27   14   16 am
    28   16   40 1
    29   17   18 2
    30   17   19 1
    31   19   20 2
    32   20   25 1
    33   20   21 1
    34   21   23 1
    35   21   22 1
    36   23   26 1
    37   23   24 2
    38   24   42 1
    39   24   25 1
    40   25   41 1
    41   26   31 ar
    42   26   27 ar
    43   27   28 ar
    44   27   43 1
    45   28   29 ar
    46   28   44 1
    47   29   30 ar
    48   30   31 ar
    49   30   45 1
    50   31   46 1
@<TRIPOS>MOLECULE
CHEMBL575567__1
   46    50     0     0     0
SMALL
USER_CHARGES

@<TRIPOS>ATOM
      1 C1         -0.0167    1.3782    0.0096 C.ar      1 <0>        -0.1139
      2 C2          1.1712    2.0850    0.0021 C.ar      1 <0>        -0.1040
      3 C3          2.3785    1.4143   -0.0292 C.ar      1 <0>        -0.1261
      4 C4          2.4084    0.0241   -0.0443 C.ar      1 <0>         0.1237
      5 C5          1.2119   -0.6843   -0.0090 C.ar      1 <0>         0.1473
      6 C6          0.0021   -0.0041    0.0020 C.ar      1 <0>        -0.1107
      7 N1          1.2099   -2.0835    0.0615 N.pl3     1 <0>        -0.7249
      8 C7          1.7983   -2.7093    1.1547 C.ar      1 <0>         0.1938
      9 C8          1.0368   -3.5270    1.9770 C.ar      1 <0>        -0.0925
     10 C9          1.6149   -4.1180    3.0971 C.ar      1 <0>        -0.0671
     11 C10         2.9595   -3.8850    3.3938 C.ar      1 <0>        -0.0794
     12 C11         3.7229   -3.0887    2.5717 C.ar      1 <0>        -0.0607
     13 C12         3.1577   -2.5076    1.4313 C.ar      1 <0>        -0.1344
     14 C13         4.0015   -1.7258    0.5181 C.2       1 <0>         0.5722
     15 O1          5.1342   -2.1261    0.3319 O.2       1 <0>        -0.5310
     16 N2          3.6393   -0.6253   -0.1202 N.am      1 <0>        -0.6506
     17 C14         0.8030   -4.9944    3.9752 C.2       1 <0>         0.5465
     18 O2         -0.3707   -5.1974    3.7164 O.2       1 <0>        -0.5895
     19 N3          1.3574   -5.5612    5.0493 N.2       1 <0>        -0.6635
     20 C15         0.6286   -6.3478    5.8375 C.2       1 <0>         0.6207
     21 N4          1.0650   -6.9789    6.9584 N.pl3     1 <0>        -0.5712
     22 H1          1.9617   -6.9367    7.3258 H         1 <0>         0.4457
     23 C16        -0.0033   -7.6958    7.4849 C.2       1 <0>         0.0459
     24 C17        -1.0677   -7.4949    6.6859 C.2       1 <0>         0.0350
     25 N5         -0.6837   -6.6555    5.6649 N.pl3     1 <0>        -0.5901
     26 C18         0.0249   -8.5308    8.7044 C.ar      1 <0>         0.0293
     27 C19         1.1961   -8.6606    9.4608 C.ar      1 <0>        -0.1696
     28 C20         1.1776   -9.4496   10.5911 C.ar      1 <0>         0.1134
     29 N6          0.0771  -10.0770   10.9619 N.ar      1 <0>        -0.4838
     30 C21        -1.0478   -9.9819   10.2781 C.ar      1 <0>         0.1127
     31 C22        -1.1205   -9.2093    9.1386 C.ar      1 <0>        -0.1588
     32 H2         -0.9590    1.9056    0.0259 H         1 <0>         0.1311
     33 H3          1.1554    3.1647    0.0204 H         1 <0>         0.1319
     34 H4          3.3033    1.9721   -0.0417 H         1 <0>         0.1321
     35 H5         -0.9264   -0.5557    0.0050 H         1 <0>         0.1325
     36 H6          0.8029   -2.6096   -0.6444 H         1 <0>         0.4128
     37 H7         -0.0037   -3.7046    1.7487 H         1 <0>         0.1422
     38 H8          3.4017   -4.3314    4.2722 H         1 <0>         0.1492
     39 H9          4.7619   -2.9115    2.8074 H         1 <0>         0.1400
     40 H10         4.3027   -0.2267   -0.7049 H         1 <0>         0.4099
     41 H11        -1.2517   -6.3395    4.9449 H         1 <0>         0.4537
     42 H12        -2.0526   -7.9158    6.8241 H         1 <0>         0.1981
     43 H13         2.1003   -8.1506    9.1629 H         1 <0>         0.1343
     44 H14         2.0759   -9.5560   11.1811 H         1 <0>         0.1621
     45 H15        -1.9245  -10.5129   10.6184 H         1 <0>         0.1637
     46 H16        -2.0456   -9.1320    8.5868 H         1 <0>         0.1422
@<TRIPOS>BOND
     1    1    6 ar
     2    1    2 ar
     3    1   32 1
     4    2    3 ar
     5    2   33 1
     6    3    4 ar
     7    3   34 1
     8    4   16 1
     9    4    5 ar
    10    5    6 ar
    11    5    7 1
    12    6   35 1
    13    7    8 1
    14    7   36 1
    15    8   13 ar
    16    8    9 ar
    17    9   10 ar
    18    9   37 1
    19   10   11 ar
    20   10   17 1
    21   11   12 ar
    22   11   38 1
    23   12   13 ar
    24   12   39 1
    25   13   14 1
    26   14   15 2
    27   14   16 am
    28   16   40 1
    29   17   18 2
    30   17   19 1
    31   19   20 2
    32   20   25 1
    33   20   21 1
    34   21   23 1
    35   21   22 1
    36   23   26 1
    37   23   24 2
    38   24   42 1
    39   24   25 1
    40   25   41 1
    41   26   31 ar
    42   26   27 ar
    43   27   28 ar
    44   27   43 1
    45   28   29 ar
    46   28   44 1
    47   29   30 ar
    48   30   31 ar
    49   30   45 1
    50   31   46 1
@<TRIPOS>MOLECULE
CHEMBL257099
   71    76     0     0     0
SMALL
USER_CHARGES

@<TRIPOS>ATOM
      1 C1          0.5431    1.2469   -1.1884 C.ar      1 <0>        -0.1244
      2 C2          0.6967   -0.0201   -1.7226 C.ar      1 <0>        -0.1044
      3 C3          1.8755   -0.7123   -1.5365 C.ar      1 <0>        -0.1393
      4 C4          2.9143   -0.1317   -0.8074 C.ar      1 <0>        -0.0001
      5 C5          2.7529    1.1467   -0.2712 C.ar      1 <0>        -0.1056
      6 C6          1.5690    1.8281   -0.4647 C.ar      1 <0>        -0.1078
      7 C7          4.1803   -0.8680   -0.6036 C.2       1 <0>         0.0437
      8 C8          5.3816   -0.3200   -0.2682 C.2       1 <0>        -0.1649
      9 C9          6.3095   -1.3701   -0.1760 C.2       1 <0>        -0.1959
     10 C10         5.6573   -2.5195   -0.4546 C.2       1 <0>         0.0587
     11 N1          4.3519   -2.2242   -0.7129 N.pl3     1 <0>        -0.4167
     12 C11         3.3074   -3.1933   -1.0536 C.3       1 <0>         0.0685
     13 C12         3.2628   -3.3790   -2.5484 C.2       1 <0>         0.5016
     14 O1          4.0297   -2.7612   -3.2607 O.2       1 <0>        -0.5121
     15 N2          2.3832   -4.2198   -3.0888 N.2       1 <0>        -0.7061
     16 C13         1.5136   -3.7815   -3.9903 C.2       1 <0>         0.7005
     17 N3          0.5614   -4.6219   -4.4832 N.pl3     1 <0>        -0.8219
     18 N4          1.5731   -2.4910   -4.4229 N.pl3     1 <0>        -0.7352
     19 C14         0.6256   -2.0125   -5.4326 C.3       1 <0>         0.1468
     20 C15         0.9030   -0.5623   -5.7344 C.ar      1 <0>        -0.0674
     21 C16         0.2746    0.4282   -5.0015 C.ar      1 <0>        -0.1539
     22 C17         0.5258    1.7599   -5.2754 C.ar      1 <0>        -0.0678
     23 C18         1.4061    2.1054   -6.2822 C.ar      1 <0>        -0.1857
     24 C19         2.0392    1.1133   -7.0198 C.ar      1 <0>         0.2164
     25 C20         1.7884   -0.2240   -6.7385 C.ar      1 <0>        -0.1751
     26 N5          2.9299    1.4591   -8.0385 N.pl3     1 <0>        -0.8772
     27 C21         6.2686   -3.8969   -0.4717 C.3       1 <0>         0.0170
     28 C22         5.6641   -4.7371    0.6551 C.3       1 <0>        -0.1039
     29 C23         6.2847   -6.1355    0.6378 C.3       1 <0>        -0.0847
     30 C24         7.7973   -6.0247    0.8393 C.3       1 <0>        -0.1080
     31 C25         8.4017   -5.1846   -0.2875 C.3       1 <0>        -0.0854
     32 C26         7.7812   -3.7862   -0.2702 C.3       1 <0>        -0.0942
     33 C27         8.1141   -5.8536   -1.6331 C.3       1 <0>        -0.1085
     34 C28         6.6015   -5.9643   -1.8346 C.3       1 <0>        -0.0847
     35 C29         5.9970   -6.8045   -0.7078 C.3       1 <0>        -0.1085
     36 C30         5.9809   -4.5659   -1.8173 C.3       1 <0>        -0.1005
     37 H1         -0.3801    1.7863   -1.3408 H         1 <0>         0.1219
     38 H2         -0.1082   -0.4684   -2.2863 H         1 <0>         0.1175
     39 H3          1.9940   -1.7013   -1.9537 H         1 <0>         0.1099
     40 H4          3.5529    1.6013    0.2943 H         1 <0>         0.1274
     41 H5          1.4429    2.8174   -0.0503 H         1 <0>         0.1253
     42 H6          5.5831    0.7282   -0.1035 H         1 <0>         0.1361
     43 H7          7.3563   -1.2755    0.0723 H         1 <0>         0.1371
     44 H8          3.5274   -4.1477   -0.5753 H         1 <0>         0.1218
     45 H9          2.3427   -2.8256   -0.7042 H         1 <0>         0.1162
     46 H10         0.5191   -5.5407   -4.1752 H         1 <0>         0.4257
     47 H11        -0.0742   -4.3014   -5.1421 H         1 <0>         0.4114
     48 H12         2.2429   -1.8891   -4.0624 H         1 <0>         0.4245
     49 H13         0.7372   -2.6009   -6.3433 H         1 <0>         0.0784
     50 H14        -0.3915   -2.1169   -5.0548 H         1 <0>         0.0794
     51 H15        -0.4141    0.1608   -4.2138 H         1 <0>         0.1190
     52 H16         0.0330    2.5309   -4.7018 H         1 <0>         0.1238
     53 H17         1.6017    3.1458   -6.4959 H         1 <0>         0.1213
     54 H18         2.2821   -0.9979   -7.3074 H         1 <0>         0.1199
     55 H19         3.1070    2.3931   -8.2316 H         1 <0>         0.3997
     56 H20         3.3714    0.7654   -8.5530 H         1 <0>         0.3990
     57 H21         5.8690   -4.2605    1.6137 H         1 <0>         0.0678
     58 H22         4.5865   -4.8160    0.5116 H         1 <0>         0.0571
     59 H23         5.8540   -6.7340    1.4406 H         1 <0>         0.0712
     60 H24         8.0022   -5.5481    1.7979 H         1 <0>         0.0628
     61 H25         8.2394   -7.0210    0.8270 H         1 <0>         0.0626
     62 H26         9.4794   -5.1057   -0.1439 H         1 <0>         0.0724
     63 H27         8.2118   -3.1876   -1.0729 H         1 <0>         0.0673
     64 H28         7.9861   -3.3096    0.6884 H         1 <0>         0.0682
     65 H29         8.5447   -5.2550   -2.4358 H         1 <0>         0.0612
     66 H30         8.5562   -6.8498   -1.6454 H         1 <0>         0.0619
     67 H31         6.3966   -6.4409   -2.7932 H         1 <0>         0.0682
     68 H32         6.4391   -7.8007   -0.7201 H         1 <0>         0.0628
     69 H33         4.9194   -6.8834   -0.8513 H         1 <0>         0.0608
     70 H34         4.9033   -4.6448   -1.9608 H         1 <0>         0.0611
     71 H35         6.4115   -3.9674   -2.6200 H         1 <0>         0.0658
@<TRIPOS>BOND
     1    1    6 ar
     2    1    2 ar
     3    1   37 1
     4    2    3 ar
     5    2   38 1
     6    3    4 ar
     7    3   39 1
     8    4    5 ar
     9    4    7 1
    10    5    6 ar
    11    5   40 1
    12    6   41 1
    13    7   11 1
    14    7    8 2
    15    8    9 1
    16    8   42 1
    17    9   10 2
    18    9   43 1
    19   10   11 1
    20   10   27 1
    21   11   12 1
    22   12   13 1
    23   12   44 1
    24   12   45 1
    25   13   14 2
    26   13   15 1
    27   15   16 2
    28   16   17 1
    29   16   18 1
    30   17   46 1
    31   17   47 1
    32   18   19 1
    33   18   48 1
    34   19   20 1
    35   19   49 1
    36   19   50 1
    37   20   25 ar
    38   20   21 ar
    39   21   22 ar
    40   21   51 1
    41   22   23 ar
    42   22   52 1
    43   23   24 ar
    44   23   53 1
    45   24   25 ar
    46   24   26 1
    47   25   54 1
    48   26   55 1
    49   26   56 1
    50   27   32 1
    51   27   36 1
    52   27   28 1
    53   28   29 1
    54   28   57 1
    55   28   58 1
    56   29   35 1
    57   29   30 1
    58   29   59 1
    59   30   31 1
    60   30   60 1
    61   30   61 1
    62   31   32 1
    63   31   33 1
    64   31   62 1
    65   32   63 1
    66   32   64 1
    67   33   34 1
    68   33   65 1
    69   33   66 1
    70   34   35 1
    71   34   36 1
    72   34   67 1
    73   35   68 1
    74   35   69 1
    75   36   70 1
    76   36   71 1
@<TRIPOS>MOLECULE
CHEMBL257099__1
   71    76     0     0     0
SMALL
USER_CHARGES

@<TRIPOS>ATOM
      1 C1          0.1849    1.6163   -0.0737 C.ar      1 <0>        -0.1247
      2 C2          0.1722    0.2813    0.2897 C.ar      1 <0>        -0.1112
      3 C3          1.3425   -0.4492    0.2849 C.ar      1 <0>        -0.1294
      4 C4          2.5410    0.1612   -0.0875 C.ar      1 <0>        -0.0103
      5 C5          2.5470    1.5081   -0.4530 C.ar      1 <0>        -0.1052
      6 C6          1.3697    2.2274   -0.4440 C.ar      1 <0>        -0.1140
      7 C7          3.7991   -0.6156   -0.0945 C.2       1 <0>         0.0583
      8 C8          5.0597   -0.1007   -0.0531 C.2       1 <0>        -0.1708
      9 C9          5.9547   -1.1827   -0.0769 C.2       1 <0>        -0.1901
     10 C10         5.2248   -2.3178   -0.1316 C.2       1 <0>         0.0436
     11 N1          3.9037   -1.9823   -0.1376 N.pl3     1 <0>        -0.4175
     12 C11         2.7827   -2.9243   -0.1856 C.3       1 <0>         0.0709
     13 C12         2.3178   -3.2237    1.2162 C.2       1 <0>         0.5032
     14 O1          2.8698   -2.7006    2.1643 O.2       1 <0>        -0.5166
     15 N2          1.3024   -4.0614    1.4162 N.2       1 <0>        -0.7077
     16 C13         1.4724   -5.1432    2.1658 C.2       1 <0>         0.7053
     17 N3          2.6524   -5.3421    2.8170 N.pl3     1 <0>        -0.8649
     18 N4          0.4671   -6.0548    2.2840 N.pl3     1 <0>        -0.6950
     19 C14         0.6548   -7.2491    3.1115 C.3       1 <0>         0.1544
     20 C15        -0.5967   -8.0878    3.0744 C.ar      1 <0>        -0.0665
     21 C16        -1.5979   -7.8763    4.0049 C.ar      1 <0>        -0.1554
     22 C17        -2.7475   -8.6438    3.9746 C.ar      1 <0>        -0.0708
     23 C18        -2.9000   -9.6245    3.0140 C.ar      1 <0>        -0.1854
     24 C19        -1.8968   -9.8393    2.0778 C.ar      1 <0>         0.2152
     25 C20        -0.7451   -9.0628    2.1079 C.ar      1 <0>        -0.1763
     26 N5         -2.0476  -10.8302    1.1051 N.pl3     1 <0>        -0.8774
     27 C21         5.7778   -3.7191   -0.1733 C.3       1 <0>         0.0206
     28 C22         5.1346   -4.5543    0.9356 C.3       1 <0>        -0.1072
     29 C23         5.6960   -5.9770    0.8932 C.3       1 <0>        -0.0834
     30 C24         7.2112   -5.9338    1.1009 C.3       1 <0>        -0.1089
     31 C25         7.8543   -5.0985   -0.0080 C.3       1 <0>        -0.0858
     32 C26         7.2930   -3.6759    0.0343 C.3       1 <0>        -0.0950
     33 C27         7.5436   -5.7292   -1.3669 C.3       1 <0>        -0.1084
     34 C28         6.0284   -5.7724   -1.5746 C.3       1 <0>        -0.0851
     35 C29         5.3852   -6.6076   -0.4657 C.3       1 <0>        -0.1082
     36 C30         5.4670   -4.3497   -1.5322 C.3       1 <0>        -0.1043
     37 H1         -0.7347    2.1826   -0.0726 H         1 <0>         0.1222
     38 H2         -0.7559   -0.1897    0.5780 H         1 <0>         0.1223
     39 H3          1.3312   -1.4911    0.5691 H         1 <0>         0.1224
     40 H4          3.4712    1.9864   -0.7418 H         1 <0>         0.1269
     41 H5          1.3730    3.2698   -0.7265 H         1 <0>         0.1252
     42 H6          5.3223    0.9460   -0.0100 H         1 <0>         0.1367
     43 H7          7.0326   -1.1186   -0.0560 H         1 <0>         0.1370
     44 H8          1.9631   -2.4850   -0.7542 H         1 <0>         0.1183
     45 H9          3.1046   -3.8479   -0.6667 H         1 <0>         0.1188
     46 H10         3.3392   -4.6575    2.7962 H         1 <0>         0.4236
     47 H11         2.8057   -6.1684    3.3014 H         1 <0>         0.4008
     48 H12        -0.3731   -5.9132    1.8204 H         1 <0>         0.4265
     49 H13         1.4929   -7.8299    2.7264 H         1 <0>         0.0779
     50 H14         0.8615   -6.9503    4.1392 H         1 <0>         0.0810
     51 H15        -1.4812   -7.1101    4.7570 H         1 <0>         0.1220
     52 H16        -3.5271   -8.4765    4.7032 H         1 <0>         0.1256
     53 H17        -3.7981  -10.2239    2.9912 H         1 <0>         0.1224
     54 H18         0.0351   -9.2244    1.3788 H         1 <0>         0.1220
     55 H19        -2.8537  -11.3693    1.0829 H         1 <0>         0.4002
     56 H20        -1.3463  -10.9793    0.4517 H         1 <0>         0.3993
     57 H21         5.3560   -4.1050    1.9037 H         1 <0>         0.0667
     58 H22         4.0551   -4.5851    0.7876 H         1 <0>         0.0533
     59 H23         5.2378   -6.5720    1.6832 H         1 <0>         0.0666
     60 H24         7.4326   -5.4845    2.0690 H         1 <0>         0.0629
     61 H25         7.6111   -6.9473    1.0707 H         1 <0>         0.0634
     62 H26         8.9338   -5.0678    0.1400 H         1 <0>         0.0741
     63 H27         7.7512   -3.0808   -0.7557 H         1 <0>         0.0703
     64 H28         7.5143   -3.2266    1.0025 H         1 <0>         0.0687
     65 H29         8.0018   -5.1342   -2.1569 H         1 <0>         0.0642
     66 H30         7.9435   -6.7427   -1.3971 H         1 <0>         0.0629
     67 H31         5.8070   -6.2217   -2.5427 H         1 <0>         0.0719
     68 H32         5.7851   -7.6212   -0.4958 H         1 <0>         0.0644
     69 H33         4.3057   -6.6384   -0.6136 H         1 <0>         0.0569
     70 H34         4.3875   -4.3805   -1.6802 H         1 <0>         0.0560
     71 H35         5.9252   -3.7547   -2.3222 H         1 <0>         0.0704
@<TRIPOS>BOND
     1    1    6 ar
     2    1    2 ar
     3    1   37 1
     4    2    3 ar
     5    2   38 1
     6    3    4 ar
     7    3   39 1
     8    4    5 ar
     9    4    7 1
    10    5    6 ar
    11    5   40 1
    12    6   41 1
    13    7   11 1
    14    7    8 2
    15    8    9 1
    16    8   42 1
    17    9   10 2
    18    9   43 1
    19   10   11 1
    20   10   27 1
    21   11   12 1
    22   12   13 1
    23   12   44 1
    24   12   45 1
    25   13   14 2
    26   13   15 1
    27   15   16 2
    28   16   17 1
    29   16   18 1
    30   17   46 1
    31   17   47 1
    32   18   19 1
    33   18   48 1
    34   19   20 1
    35   19   49 1
    36   19   50 1
    37   20   25 ar
    38   20   21 ar
    39   21   22 ar
    40   21   51 1
    41   22   23 ar
    42   22   52 1
    43   23   24 ar
    44   23   53 1
    45   24   25 ar
    46   24   26 1
    47   25   54 1
    48   26   55 1
    49   26   56 1
    50   27   32 1
    51   27   36 1
    52   27   28 1
    53   28   29 1
    54   28   57 1
    55   28   58 1
    56   29   35 1
    57   29   30 1
    58   29   59 1
    59   30   31 1
    60   30   60 1
    61   30   61 1
    62   31   32 1
    63   31   33 1
    64   31   62 1
    65   32   63 1
    66   32   64 1
    67   33   34 1
    68   33   65 1
    69   33   66 1
    70   34   35 1
    71   34   36 1
    72   34   67 1
    73   35   68 1
    74   35   69 1
    75   36   70 1
    76   36   71 1
@<TRIPOS>MOLECULE
CHEMBL558471
   75    79     0     0     0
SMALL
USER_CHARGES

@<TRIPOS>ATOM
      1 C1         -0.0187    1.5258    0.0104 C.3       1 <0>        -0.1719
      2 C2          0.0021   -0.0041    0.0020 C.3       1 <0>         0.1014
      3 N1          0.6878   -0.4765   -1.2033 N.pl3     1 <0>        -0.4702
      4 C3          0.0685   -0.8278   -2.3755 C.2       1 <0>         0.0802
      5 C4          0.9930   -1.1752   -3.2966 C.2       1 <0>        -0.1940
      6 C5          2.2718   -0.9860   -2.6664 C.ar      1 <0>        -0.0970
      7 C6          2.0512   -0.6285   -1.3300 C.ar      1 <0>         0.1016
      8 C7          3.1426   -0.5313   -0.4802 C.ar      1 <0>        -0.0757
      9 C8          4.4339   -0.6868   -0.9835 C.ar      1 <0>        -0.1030
     10 C9          4.6526   -0.9158   -2.3534 C.ar      1 <0>        -0.0657
     11 C10         3.5837   -1.0300   -3.1961 C.ar      1 <0>         0.1681
     12 N2          3.6828   -1.1194   -4.5872 N.pl3     1 <0>        -0.9502
     13 S1          3.2570   -2.4839   -5.3719 S.o2      1 <0>         2.6203
     14 O1          4.1529   -3.4627   -4.8634 O.2       1 <0>        -0.9524
     15 O2          3.3132   -2.1190   -6.7441 O.2       1 <0>        -0.9578
     16 C11         1.5620   -2.9461   -4.9476 C.3       1 <0>        -0.6335
     17 C12         0.6840   -1.7085   -4.6825 C.3       1 <0>        -0.0137
     18 C13         4.1759    0.0291   -5.3513 C.3       1 <0>         0.0874
     19 C14         5.5870   -0.6104   -0.0653 C.2       1 <0>         0.5656
     20 O3          6.7164   -0.7447   -0.4951 O.2       1 <0>        -0.5045
     21 N3          5.3880   -0.3916    1.2497 N.am      1 <0>        -0.7199
     22 C15         6.5324   -0.3158    2.1611 C.3       1 <0>         0.1075
     23 H1          7.3052   -1.0108    1.8326 H         1 <0>         0.1216
     24 C16         7.0927    1.1080    2.1588 C.3       1 <0>        -0.0849
     25 C17         7.6476    1.4273    0.7946 C.ar      1 <0>        -0.0705
     26 C18         8.9699    1.1483    0.5036 C.ar      1 <0>        -0.1040
     27 C19         9.4789    1.4412   -0.7478 C.ar      1 <0>        -0.1122
     28 C20         8.6655    2.0127   -1.7084 C.ar      1 <0>        -0.1158
     29 C21         7.3430    2.2908   -1.4177 C.ar      1 <0>        -0.1111
     30 C22         6.8328    1.9939   -0.1677 C.ar      1 <0>        -0.1060
     31 C23         6.0895   -0.6791    3.5549 C.2       1 <0>         0.3560
     32 O4          4.9133   -0.7064    3.8269 O.2       1 <0>        -0.4281
     33 C24         7.1145   -1.0085    4.6094 C.3       1 <0>         0.0104
     34 N4          6.4337   -1.3263    5.8717 N.3       1 <0>        -0.6734
     35 C25         7.4038   -1.6532    6.9253 C.3       1 <0>         0.0868
     36 C26         7.7726   -3.1374    6.8396 C.3       1 <0>        -0.1456
     37 C27         8.7224   -3.4864    7.9885 C.3       1 <0>         0.0596
     38 O5          8.0972   -3.1707    9.2342 O.3       1 <0>        -0.3806
     39 C28         7.7725   -1.7878    9.3901 C.3       1 <0>         0.0635
     40 C29         6.7846   -1.3706    8.2976 C.3       1 <0>        -0.1592
     41 H2          1.0039    1.9031    0.0027 H         1 <0>         0.0631
     42 H3         -0.5459    1.8868   -0.8726 H         1 <0>         0.0639
     43 H4         -0.5289    1.8773    0.9072 H         1 <0>         0.0778
     44 H5          0.5293   -0.3651    0.8851 H         1 <0>         0.0902
     45 H6         -1.0205   -0.3814    0.0098 H         1 <0>         0.0951
     46 H7         -0.9992   -0.8264   -2.5379 H         1 <0>         0.1754
     47 H8          2.9928   -0.3350    0.5711 H         1 <0>         0.1275
     48 H9          5.6587   -1.0063   -2.7354 H         1 <0>         0.1469
     49 H10         1.1323   -3.5165   -5.7711 H         1 <0>         0.1434
     50 H11         1.5767   -3.5702   -4.0541 H         1 <0>         0.1371
     51 H12        -0.3679   -1.9881   -4.7399 H         1 <0>         0.0964
     52 H13         0.9006   -0.9410   -5.4256 H         1 <0>         0.0834
     53 H14         5.2594   -0.0380   -5.4497 H         1 <0>         0.0641
     54 H15         3.7205    0.0292   -6.3416 H         1 <0>         0.0947
     55 H16         3.9148    0.9507   -4.8312 H         1 <0>         0.0761
     56 H17         4.4869   -0.2845    1.5926 H         1 <0>         0.4048
     57 H18         6.2966    1.8120    2.4012 H         1 <0>         0.0794
     58 H19         7.8864    1.1872    2.9016 H         1 <0>         0.0875
     59 H20         9.6053    0.7019    1.2541 H         1 <0>         0.1157
     60 H21        10.5121    1.2239   -0.9749 H         1 <0>         0.1176
     61 H22         9.0634    2.2421   -2.6858 H         1 <0>         0.1167
     62 H23         6.7076    2.7376   -2.1681 H         1 <0>         0.1149
     63 H24         5.7986    2.2078    0.0582 H         1 <0>         0.1092
     64 H25         7.7034   -1.8675    4.2879 H         1 <0>         0.1123
     65 H26         7.7722   -0.1518    4.7570 H         1 <0>         0.0716
     66 H27         5.8305   -0.5697    6.1577 H         1 <0>         0.3504
     67 H28         8.2996   -1.0455    6.7974 H         1 <0>         0.0491
     68 H29         6.8692   -3.7423    6.9173 H         1 <0>         0.0818
     69 H30         8.2644   -3.3362    5.8874 H         1 <0>         0.0719
     70 H31         8.9544   -4.5509    7.9577 H         1 <0>         0.0976
     71 H32         9.6423   -2.9106    7.8873 H         1 <0>         0.0498
     72 H33         7.3203   -1.6288   10.3691 H         1 <0>         0.0977
     73 H34         8.6800   -1.1898    9.3073 H         1 <0>         0.0506
     74 H35         6.5698   -0.3059    8.3880 H         1 <0>         0.0733
     75 H36         5.8612   -1.9399    8.4047 H         1 <0>         0.0839
@<TRIPOS>BOND
     1    1    2 1
     2    1   41 1
     3    1   42 1
     4    1   43 1
     5    2    3 1
     6    2   44 1
     7    2   45 1
     8    3    7 1
     9    3    4 1
    10    4    5 2
    11    4   46 1
    12    5   17 1
    13    5    6 1
    14    6   11 ar
    15    6    7 ar
    16    7    8 ar
    17    8    9 ar
    18    8   47 1
    19    9   10 ar
    20    9   19 1
    21   10   11 ar
    22   10   48 1
    23   11   12 1
    24   12   13 1
    25   12   18 1
    26   13   14 2
    27   13   15 2
    28   13   16 1
    29   16   17 1
    30   16   49 1
    31   16   50 1
    32   17   51 1
    33   17   52 1
    34   18   53 1
    35   18   54 1
    36   18   55 1
    37   19   20 2
    38   19   21 am
    39   21   22 1
    40   21   56 1
    41   22   23 1
    42   22   24 1
    43   22   31 1
    44   24   25 1
    45   24   57 1
    46   24   58 1
    47   25   30 ar
    48   25   26 ar
    49   26   27 ar
    50   26   59 1
    51   27   28 ar
    52   27   60 1
    53   28   29 ar
    54   28   61 1
    55   29   30 ar
    56   29   62 1
    57   30   63 1
    58   31   32 2
    59   31   33 1
    60   33   34 1
    61   33   64 1
    62   33   65 1
    63   34   35 1
    64   34   66 1
    65   35   40 1
    66   35   36 1
    67   35   67 1
    68   36   37 1
    69   36   68 1
    70   36   69 1
    71   37   38 1
    72   37   70 1
    73   37   71 1
    74   38   39 1
    75   39   40 1
    76   39   72 1
    77   39   73 1
    78   40   74 1
    79   40   75 1
@<TRIPOS>MOLECULE
CHEMBL558471__1
   76    80     0     0     0
SMALL
USER_CHARGES

@<TRIPOS>ATOM
      1 C1         -0.0187    1.5258    0.0104 C.3       1 <0>        -0.1729
      2 C2          0.0021   -0.0041    0.0020 C.3       1 <0>         0.1029
      3 N1         -1.3723   -0.5112    0.0124 N.pl3     1 <0>        -0.4711
      4 C3         -2.0690   -0.8761    1.1360 C.2       1 <0>         0.0837
      5 C4         -3.3197   -1.2562    0.7971 C.2       1 <0>        -0.1905
      6 C5         -3.4179   -1.0743   -0.6262 C.ar      1 <0>        -0.0938
      7 C6         -2.1596   -0.6869   -1.1045 C.ar      1 <0>         0.1001
      8 C7         -1.9717   -0.5897   -2.4749 C.ar      1 <0>        -0.0764
      9 C8         -3.0488   -0.7753   -3.3410 C.ar      1 <0>        -0.1100
     10 C9         -4.3384   -1.0350   -2.8447 C.ar      1 <0>        -0.0687
     11 C10        -4.5310   -1.1494   -1.4973 C.ar      1 <0>         0.1763
     12 N2         -5.7827   -1.2682   -0.8874 N.pl3     1 <0>        -0.9524
     13 S1         -6.2155   -2.6416   -0.1224 S.o2      1 <0>         2.6191
     14 O1         -6.1977   -3.6234   -1.1496 O.2       1 <0>        -0.9527
     15 O2         -7.4412   -2.3055    0.5131 O.2       1 <0>        -0.9529
     16 C11        -4.9903   -3.0693    1.1355 C.3       1 <0>        -0.6334
     17 C12        -4.3519   -1.8122    1.7594 C.3       1 <0>        -0.0164
     18 C13        -6.7196   -0.1429   -0.9364 C.3       1 <0>         0.0863
     19 C14        -2.8319   -0.6985   -4.7990 C.2       1 <0>         0.5712
     20 O3         -3.7651   -0.8590   -5.5618 O.2       1 <0>        -0.4952
     21 N3         -1.5994   -0.4505   -5.2848 N.am      1 <0>        -0.7275
     22 C15        -1.3841   -0.3742   -6.7319 C.3       1 <0>         0.1153
     23 H1         -2.0372   -1.0876   -7.2345 H         1 <0>         0.1342
     24 C16        -1.7018    1.0403   -7.2209 C.3       1 <0>        -0.0840
     25 C17        -3.1683    1.3236   -7.0206 C.ar      1 <0>        -0.0851
     26 C18        -4.0740    1.0183   -8.0193 C.ar      1 <0>        -0.1033
     27 C19        -5.4192    1.2781   -7.8355 C.ar      1 <0>        -0.1106
     28 C20        -5.8588    1.8429   -6.6528 C.ar      1 <0>        -0.1067
     29 C21        -4.9532    2.1473   -5.6537 C.ar      1 <0>        -0.1084
     30 C22        -3.6085    1.8835   -5.8358 C.ar      1 <0>        -0.1038
     31 C23         0.0532   -0.7027   -7.0439 C.2       1 <0>         0.3479
     32 O4          0.8771   -0.7062   -6.1611 O.2       1 <0>        -0.4228
     33 C24         0.4622   -1.0268   -8.4577 C.3       1 <0>        -0.0632
     34 N4          1.9033   -1.3087   -8.4980 N.4       1 <0>        -0.4996
     35 C25         2.3021   -1.6247   -9.8761 C.3       1 <0>         0.0226
     36 C26         1.6320   -2.9296  -10.3170 C.3       1 <0>        -0.1826
     37 C27         2.1145   -3.2919  -11.7240 C.3       1 <0>         0.0622
     38 O5          3.5390   -3.4061  -11.7230 O.3       1 <0>        -0.3671
     39 C28         4.2206   -2.2024  -11.3644 C.3       1 <0>         0.0625
     40 C29         3.8227   -1.7964   -9.9430 C.3       1 <0>        -0.1795
     41 H2          1.0039    1.9031    0.0027 H         1 <0>         0.0782
     42 H3         -0.5459    1.8868   -0.8726 H         1 <0>         0.0618
     43 H4         -0.5289    1.8773    0.9072 H         1 <0>         0.0666
     44 H5          0.5123   -0.3556   -0.8948 H         1 <0>         0.0868
     45 H6          0.5293   -0.3651    0.8851 H         1 <0>         0.0968
     46 H7         -1.6758   -0.8620    2.1418 H         1 <0>         0.1782
     47 H8         -0.9914   -0.3701   -2.8714 H         1 <0>         0.1236
     48 H9         -5.1696   -1.1488   -3.5248 H         1 <0>         0.1476
     49 H10        -5.4746   -3.6497    1.9208 H         1 <0>         0.1460
     50 H11        -4.2080   -3.6754    0.6784 H         1 <0>         0.1364
     51 H12        -3.8689   -2.0765    2.7001 H         1 <0>         0.0990
     52 H13        -5.1227   -1.0632    1.9407 H         1 <0>         0.0857
     53 H14        -7.3445   -0.2289   -1.8254 H         1 <0>         0.0651
     54 H15        -7.3494   -0.1555   -0.0469 H         1 <0>         0.0972
     55 H16        -6.1618    0.7928   -0.9735 H         1 <0>         0.0763
     56 H17        -0.8550   -0.3224   -4.6763 H         1 <0>         0.4069
     57 H18        -1.1118    1.7614   -6.6552 H         1 <0>         0.0849
     58 H19        -1.4573    1.1220   -8.2800 H         1 <0>         0.0870
     59 H20        -3.7305    0.5771   -8.9433 H         1 <0>         0.1148
     60 H21        -6.1267    1.0403   -8.6161 H         1 <0>         0.1211
     61 H22        -6.9097    2.0465   -6.5095 H         1 <0>         0.1214
     62 H23        -5.2966    2.5889   -4.7299 H         1 <0>         0.1189
     63 H24        -2.9015    2.1179   -5.0538 H         1 <0>         0.1103
     64 H25        -0.0889   -1.9012   -8.8040 H         1 <0>         0.1730
     65 H26         0.2398   -0.1777   -9.1040 H         1 <0>         0.1737
     66 H27         2.4135   -0.4993   -8.1775 H         1 <0>         0.4344
     67 H28         1.9971   -0.8147  -10.5387 H         1 <0>         0.1464
     68 H29         1.8979   -3.7279   -9.6240 H         1 <0>         0.0995
     69 H30         0.5500   -2.7988  -10.3254 H         1 <0>         0.1016
     70 H31         1.6739   -4.2420  -12.0260 H         1 <0>         0.1183
     71 H32         1.8129   -2.5124  -12.4237 H         1 <0>         0.0680
     72 H33         5.2971   -2.3677  -11.4074 H         1 <0>         0.1184
     73 H34         3.9465   -1.4087  -12.0594 H         1 <0>         0.0677
     74 H35         4.3074   -0.8551   -9.6839 H         1 <0>         0.1030
     75 H36         4.1329   -2.5717   -9.2424 H         1 <0>         0.0989
     76 H37         2.1092   -2.0947   -7.8997 H         1 <0>         0.4331
@<TRIPOS>BOND
     1    1    2 1
     2    1   41 1
     3    1   42 1
     4    1   43 1
     5    2    3 1
     6    2   44 1
     7    2   45 1
     8    3    7 1
     9    3    4 1
    10    4    5 2
    11    4   46 1
    12    5   17 1
    13    5    6 1
    14    6   11 ar
    15    6    7 ar
    16    7    8 ar
    17    8    9 ar
    18    8   47 1
    19    9   10 ar
    20    9   19 1
    21   10   11 ar
    22   10   48 1
    23   11   12 1
    24   12   13 1
    25   12   18 1
    26   13   14 2
    27   13   15 2
    28   13   16 1
    29   16   17 1
    30   16   49 1
    31   16   50 1
    32   17   51 1
    33   17   52 1
    34   18   53 1
    35   18   54 1
    36   18   55 1
    37   19   20 2
    38   19   21 am
    39   21   22 1
    40   21   56 1
    41   22   23 1
    42   22   24 1
    43   22   31 1
    44   24   25 1
    45   24   57 1
    46   24   58 1
    47   25   30 ar
    48   25   26 ar
    49   26   27 ar
    50   26   59 1
    51   27   28 ar
    52   27   60 1
    53   28   29 ar
    54   28   61 1
    55   29   30 ar
    56   29   62 1
    57   30   63 1
    58   31   32 2
    59   31   33 1
    60   33   34 1
    61   33   64 1
    62   33   65 1
    63   34   35 1
    64   34   66 1
    65   34   76 1
    66   35   40 1
    67   35   36 1
    68   35   67 1
    69   36   37 1
    70   36   68 1
    71   36   69 1
    72   37   38 1
    73   37   70 1
    74   37   71 1
    75   38   39 1
    76   39   40 1
    77   39   72 1
    78   39   73 1
    79   40   74 1
    80   40   75 1
@<TRIPOS>MOLECULE
CHEMBL397275
   86    88     0     0     0
SMALL
USER_CHARGES

@<TRIPOS>ATOM
      1 C1          4.0851   -5.6272    2.5318 C.3       1 <0>        -0.1537
      2 C2          3.4265   -5.4648    1.1604 C.3       1 <0>        -0.1485
      3 C3          2.3326   -4.3982    1.2430 C.3       1 <0>         0.0954
      4 N1          1.8047   -4.1352   -0.0980 N.am      1 <0>        -0.6045
      5 C4          0.8220   -5.0463   -0.6901 C.3       1 <0>         0.1123
      6 C5         -0.5891   -4.5833   -0.3223 C.3       1 <0>        -0.1385
      7 C6         -1.6154   -5.5348   -0.9406 C.3       1 <0>        -0.1507
      8 C7          2.2231   -3.0551   -0.7871 C.2       1 <0>         0.5582
      9 O1          1.8433   -2.8775   -1.9279 O.2       1 <0>        -0.5229
     10 C8          3.1441   -2.0863   -0.1552 C.ar      1 <0>        -0.1242
     11 C9          4.2831   -2.5382    0.5158 C.ar      1 <0>        -0.0703
     12 C10         5.1441   -1.6349    1.1063 C.ar      1 <0>        -0.0919
     13 C11         4.8862   -0.2799    1.0384 C.ar      1 <0>        -0.0685
     14 C12         3.7509    0.1853    0.3712 C.ar      1 <0>        -0.1423
     15 C13         2.8811   -0.7206   -0.2324 C.ar      1 <0>        -0.0136
     16 C14         3.4758    1.6364    0.3002 C.2       1 <0>         0.5700
     17 O2          2.4391    2.0350   -0.1936 O.2       1 <0>        -0.5121
     18 N2          4.3744    2.5171    0.7832 N.am      1 <0>        -0.7241
     19 C15         4.0453    3.9435    0.8385 C.3       1 <0>         0.1217
     20 H1          3.3020    4.1748    0.0756 H         1 <0>         0.1197
     21 C16         3.4815    4.2836    2.2196 C.3       1 <0>        -0.1044
     22 C17         2.1607    3.5833    2.4094 C.ar      1 <0>        -0.0295
     23 C18         1.0013    4.1501    1.9149 C.ar      1 <0>        -0.1526
     24 C19        -0.2130    3.5077    2.0891 C.ar      1 <0>         0.1439
     25 C20        -0.2652    2.2972    2.7584 C.ar      1 <0>        -0.1879
     26 C21         0.8967    1.7302    3.2527 C.ar      1 <0>         0.1410
     27 C22         2.1106    2.3719    3.0728 C.ar      1 <0>        -0.1584
     28 F1          0.8473    0.5487    3.9061 F         1 <0>        -0.1264
     29 F2         -1.3463    4.0624    1.6065 F         1 <0>        -0.1263
     30 C23         5.3088    4.7686    0.5861 C.3       1 <0>         0.0757
     31 H2          5.7598    4.4630   -0.3579 H         1 <0>         0.1356
     32 C24         4.9439    6.2530    0.5201 C.3       1 <0>        -0.0494
     33 N3          6.1344    7.0344    0.1595 N.4       1 <0>        -0.5037
     34 C25         5.7841    8.4596    0.0961 C.3       1 <0>         0.0466
     35 C26         7.0054    9.2612   -0.2738 C.ar      1 <0>        -0.1650
     36 C27         7.8419    9.7428    0.7160 C.ar      1 <0>        -0.0981
     37 C28         8.9621   10.4780    0.3768 C.ar      1 <0>        -0.1096
     38 C29         9.2463   10.7313   -0.9523 C.ar      1 <0>        -0.0817
     39 C30         8.4106   10.2490   -1.9418 C.ar      1 <0>        -0.0704
     40 C31         7.2924    9.5100   -1.6027 C.ar      1 <0>        -0.0930
     41 C32         8.7201   10.5255   -3.3905 C.3       1 <0>        -0.0953
     42 C33         9.6025    9.4059   -3.9462 C.3       1 <0>        -0.1489
     43 O3          6.2385    4.5536    1.6498 O.3       1 <0>        -0.5484
     44 C34         6.3705   -2.1298    1.8288 C.3       1 <0>        -0.1190
     45 H3          4.5997   -4.7043    2.7993 H         1 <0>         0.0560
     46 H4          3.3214   -5.8468    3.2779 H         1 <0>         0.0609
     47 H5          4.8034   -6.4462    2.4952 H         1 <0>         0.0631
     48 H6          4.1768   -5.1599    0.4308 H         1 <0>         0.0679
     49 H7          2.9864   -6.4137    0.8540 H         1 <0>         0.0733
     50 H8          1.5279   -4.7524    1.8873 H         1 <0>         0.0827
     51 H9          2.7509   -3.4800    1.6554 H         1 <0>         0.0880
     52 H10         0.9335   -5.0461   -1.7743 H         1 <0>         0.0880
     53 H11         0.9848   -6.0542   -0.3083 H         1 <0>         0.0813
     54 H12        -0.7005   -4.5835    0.7620 H         1 <0>         0.0629
     55 H13        -0.7518   -3.5754   -0.7041 H         1 <0>         0.0647
     56 H14        -1.5039   -5.5346   -2.0249 H         1 <0>         0.0581
     57 H15        -1.4526   -6.5427   -0.5588 H         1 <0>         0.0569
     58 H16        -2.6207   -5.2049   -0.6787 H         1 <0>         0.0592
     59 H17         4.4904   -3.5966    0.5729 H         1 <0>         0.1466
     60 H18         5.5637    0.4214    1.5025 H         1 <0>         0.1288
     61 H19         2.0043   -0.3657   -0.7537 H         1 <0>         0.1426
     62 H20         5.2392    2.2064    1.0941 H         1 <0>         0.4085
     63 H21         4.1808    3.9551    2.9885 H         1 <0>         0.0922
     64 H22         3.3360    5.3611    2.2974 H         1 <0>         0.0911
     65 H23         1.0423    5.0946    1.3928 H         1 <0>         0.1380
     66 H24        -1.2119    1.7956    2.8950 H         1 <0>         0.1507
     67 H25         3.0179    1.9275    3.4546 H         1 <0>         0.1376
     68 H26         4.1691    6.4035   -0.2317 H         1 <0>         0.1490
     69 H27         4.5753    6.5802    1.4923 H         1 <0>         0.1424
     70 H28         6.8516    6.8950    0.8554 H         1 <0>         0.4321
     71 H29         5.0093    8.6101   -0.6557 H         1 <0>         0.1388
     72 H30         5.4154    8.7867    1.0683 H         1 <0>         0.1388
     73 H31         7.6199    9.5450    1.7542 H         1 <0>         0.1308
     74 H32         9.6152   10.8549    1.1500 H         1 <0>         0.1365
     75 H33        10.1212   11.3064   -1.2173 H         1 <0>         0.1350
     76 H34         6.6414    9.1299   -2.3761 H         1 <0>         0.1306
     77 H35         7.7908   10.5714   -3.9583 H         1 <0>         0.0781
     78 H36         9.2447   11.4773   -3.4747 H         1 <0>         0.0812
     79 H37        10.5318    9.3600   -3.3785 H         1 <0>         0.0584
     80 H38         9.0778    8.4542   -3.8620 H         1 <0>         0.0535
     81 H39         9.8264    9.6059   -4.9941 H         1 <0>         0.0670
     82 H40         5.9035    4.8042    2.5217 H         1 <0>         0.3908
     83 H41         7.2044   -2.1908    1.1294 H         1 <0>         0.0774
     84 H42         6.6214   -1.4391    2.6339 H         1 <0>         0.0716
     85 H43         6.1730   -3.1173    2.2457 H         1 <0>         0.0739
     86 H44         6.4757    6.7315   -0.7404 H         1 <0>         0.4289
@<TRIPOS>BOND
     1    1    2 1
     2    1   45 1
     3    1   46 1
     4    1   47 1
     5    2    3 1
     6    2   48 1
     7    2   49 1
     8    3    4 1
     9    3   50 1
    10    3   51 1
    11    4    5 1
    12    4    8 am
    13    5    6 1
    14    5   52 1
    15    5   53 1
    16    6    7 1
    17    6   54 1
    18    6   55 1
    19    7   56 1
    20    7   57 1
    21    7   58 1
    22    8    9 2
    23    8   10 1
    24   10   15 ar
    25   10   11 ar
    26   11   12 ar
    27   11   59 1
    28   12   13 ar
    29   12   44 1
    30   13   14 ar
    31   13   60 1
    32   14   15 ar
    33   14   16 1
    34   15   61 1
    35   16   17 2
    36   16   18 am
    37   18   19 1
    38   18   62 1
    39   19   20 1
    40   19   21 1
    41   19   30 1
    42   21   22 1
    43   21   63 1
    44   21   64 1
    45   22   27 ar
    46   22   23 ar
    47   23   24 ar
    48   23   65 1
    49   24   25 ar
    50   24   29 1
    51   25   26 ar
    52   25   66 1
    53   26   27 ar
    54   26   28 1
    55   27   67 1
    56   30   31 1
    57   30   32 1
    58   30   43 1
    59   32   33 1
    60   32   68 1
    61   32   69 1
    62   33   34 1
    63   33   70 1
    64   33   86 1
    65   34   35 1
    66   34   71 1
    67   34   72 1
    68   35   40 ar
    69   35   36 ar
    70   36   37 ar
    71   36   73 1
    72   37   38 ar
    73   37   74 1
    74   38   39 ar
    75   38   75 1
    76   39   40 ar
    77   39   41 1
    78   40   76 1
    79   41   42 1
    80   41   77 1
    81   41   78 1
    82   42   79 1
    83   42   80 1
    84   42   81 1
    85   43   82 1
    86   44   83 1
    87   44   84 1
    88   44   85 1
@<TRIPOS>MOLECULE
CHEMBL404020
   69    74     0     0     0
SMALL
USER_CHARGES

@<TRIPOS>ATOM
      1 C1         -0.0448    1.5432   -0.5616 C.ar      1 <0>        -0.1250
      2 C2         -0.0906    0.2432   -0.0901 C.ar      1 <0>        -0.1107
      3 C3          1.0747   -0.4784    0.0665 C.ar      1 <0>        -0.1309
      4 C4          2.3017    0.1056   -0.2518 C.ar      1 <0>        -0.0103
      5 C5          2.3409    1.4173   -0.7269 C.ar      1 <0>        -0.1052
      6 C6          1.1683    2.1280   -0.8789 C.ar      1 <0>        -0.1138
      7 C7          3.5546   -0.6618   -0.0859 C.2       1 <0>         0.0565
      8 C8          4.8084   -0.1383    0.0137 C.2       1 <0>        -0.1699
      9 C9          5.7003   -1.2133    0.1598 C.2       1 <0>        -0.1908
     10 C10         4.9754   -2.3528    0.1458 C.2       1 <0>         0.0460
     11 N1          3.6599   -2.0264    0.0010 N.pl3     1 <0>        -0.4175
     12 C11         2.5450   -2.9751   -0.0558 C.3       1 <0>         0.0737
     13 C12         1.9608   -3.1468    1.3227 C.2       1 <0>         0.5007
     14 O1          2.4831   -2.6033    2.2761 O.2       1 <0>        -0.5213
     15 N2          0.8724   -3.8938    1.4961 N.2       1 <0>        -0.7064
     16 C13         0.8752   -4.8723    2.3925 C.2       1 <0>         0.7042
     17 N3         -0.2103   -5.6861    2.5160 N.pl3     1 <0>        -0.8206
     18 N4          1.9636   -5.0630    3.1893 N.pl3     1 <0>        -0.7395
     19 C14         2.0059   -6.2005    4.1116 C.3       1 <0>         0.1090
     20 C15         3.2649   -6.1094    4.9763 C.3       1 <0>        -0.0741
     21 C16         3.3718   -7.3403    5.8391 C.2       1 <0>        -0.1213
     22 C17         2.7909   -7.3706    7.0930 C.2       1 <0>        -0.1562
     23 C18         2.9057   -8.4933    7.8437 C.2       1 <0>        -0.1674
     24 S1          3.8583   -9.5577    6.7728 S.3       1 <0>         0.0421
     25 C19         4.0343   -8.4363    5.3949 C.2       1 <0>        -0.1682
     26 C20         5.5273   -3.7492    0.2742 C.3       1 <0>         0.0207
     27 C21         4.7918   -4.4872    1.3946 C.3       1 <0>        -0.1043
     28 C22         5.3521   -5.9049    1.5250 C.3       1 <0>        -0.0839
     29 C23         6.8446   -5.8352    1.8543 C.3       1 <0>        -0.1084
     30 C24         7.5801   -5.0971    0.7340 C.3       1 <0>        -0.0856
     31 C25         7.0198   -3.6794    0.6036 C.3       1 <0>        -0.0948
     32 C26         7.3835   -5.8466   -0.5853 C.3       1 <0>        -0.1083
     33 C27         5.8909   -5.9163   -0.9147 C.3       1 <0>        -0.0850
     34 C28         5.1554   -6.6544    0.2057 C.3       1 <0>        -0.1082
     35 C29         5.3306   -4.4986   -1.0451 C.3       1 <0>        -0.1044
     36 H1         -0.9603    2.1023   -0.6866 H         1 <0>         0.1222
     37 H2         -1.0407   -0.2074    0.1562 H         1 <0>         0.1222
     38 H3          1.0376   -1.4930    0.4350 H         1 <0>         0.1236
     39 H4          3.2872    1.8751   -0.9746 H         1 <0>         0.1269
     40 H5          1.1973    3.1431   -1.2465 H         1 <0>         0.1252
     41 H6          5.0684    0.9095   -0.0145 H         1 <0>         0.1366
     42 H7          6.7729   -1.1416    0.2640 H         1 <0>         0.1369
     43 H8          1.7782   -2.5947   -0.7306 H         1 <0>         0.1183
     44 H9          2.9049   -3.9373   -0.4203 H         1 <0>         0.1194
     45 H10        -0.9853   -5.5503    1.9486 H         1 <0>         0.4259
     46 H11        -0.2083   -6.4013    3.1712 H         1 <0>         0.4116
     47 H12         2.7105   -4.4456    3.1461 H         1 <0>         0.4252
     48 H13         1.1237   -6.1826    4.7514 H         1 <0>         0.0731
     49 H14         2.0229   -7.1297    3.5419 H         1 <0>         0.0723
     50 H15         4.1426   -6.0387    4.3338 H         1 <0>         0.0822
     51 H16         3.2067   -5.2249    5.6106 H         1 <0>         0.0825
     52 H17         2.2540   -6.5123    7.4692 H         1 <0>         0.1345
     53 H18         2.5211   -8.6922    8.8331 H         1 <0>         0.1869
     54 H19         4.5386   -8.5907    4.4525 H         1 <0>         0.1850
     55 H20         4.9319   -3.9533    2.3345 H         1 <0>         0.0667
     56 H21         3.7285   -4.5369    1.1600 H         1 <0>         0.0514
     57 H22         4.8281   -6.4307    2.3231 H         1 <0>         0.0658
     58 H23         6.9847   -5.3013    2.7942 H         1 <0>         0.0625
     59 H24         7.2438   -6.8452    1.9472 H         1 <0>         0.0632
     60 H25         8.6434   -5.0474    0.9686 H         1 <0>         0.0739
     61 H26         7.5438   -3.1536   -0.1946 H         1 <0>         0.0701
     62 H27         7.1599   -3.1455    1.5435 H         1 <0>         0.0685
     63 H28         7.9075   -5.3208   -1.3835 H         1 <0>         0.0642
     64 H29         7.7826   -6.8566   -0.4925 H         1 <0>         0.0629
     65 H30         5.7508   -6.4503   -1.8546 H         1 <0>         0.0720
     66 H31         5.5546   -7.6644    0.2986 H         1 <0>         0.0644
     67 H32         4.0921   -6.7041   -0.0290 H         1 <0>         0.0567
     68 H33         4.2674   -4.5483   -1.2797 H         1 <0>         0.0558
     69 H34         5.8546   -3.9728   -1.8432 H         1 <0>         0.0705
@<TRIPOS>BOND
     1    1    6 ar
     2    1    2 ar
     3    1   36 1
     4    2    3 ar
     5    2   37 1
     6    3    4 ar
     7    3   38 1
     8    4    5 ar
     9    4    7 1
    10    5    6 ar
    11    5   39 1
    12    6   40 1
    13    7   11 1
    14    7    8 2
    15    8    9 1
    16    8   41 1
    17    9   10 2
    18    9   42 1
    19   10   11 1
    20   10   26 1
    21   11   12 1
    22   12   13 1
    23   12   43 1
    24   12   44 1
    25   13   14 2
    26   13   15 1
    27   15   16 2
    28   16   17 1
    29   16   18 1
    30   17   45 1
    31   17   46 1
    32   18   19 1
    33   18   47 1
    34   19   20 1
    35   19   48 1
    36   19   49 1
    37   20   21 1
    38   20   50 1
    39   20   51 1
    40   21   25 2
    41   21   22 1
    42   22   23 2
    43   22   52 1
    44   23   24 1
    45   23   53 1
    46   24   25 1
    47   25   54 1
    48   26   31 1
    49   26   35 1
    50   26   27 1
    51   27   28 1
    52   27   55 1
    53   27   56 1
    54   28   34 1
    55   28   29 1
    56   28   57 1
    57   29   30 1
    58   29   58 1
    59   29   59 1
    60   30   31 1
    61   30   32 1
    62   30   60 1
    63   31   61 1
    64   31   62 1
    65   32   33 1
    66   32   63 1
    67   32   64 1
    68   33   34 1
    69   33   35 1
    70   33   65 1
    71   34   66 1
    72   34   67 1
    73   35   68 1
    74   35   69 1
@<TRIPOS>MOLECULE
CHEMBL404020__1
   69    74     0     0     0
SMALL
USER_CHARGES

@<TRIPOS>ATOM
      1 C1          0.1849    1.6163   -0.0737 C.ar      1 <0>        -0.1247
      2 C2          0.1722    0.2813    0.2897 C.ar      1 <0>        -0.1112
      3 C3          1.3425   -0.4492    0.2849 C.ar      1 <0>        -0.1298
      4 C4          2.5410    0.1612   -0.0875 C.ar      1 <0>        -0.0101
      5 C5          2.5470    1.5081   -0.4530 C.ar      1 <0>        -0.1051
      6 C6          1.3697    2.2274   -0.4440 C.ar      1 <0>        -0.1138
      7 C7          3.7991   -0.6156   -0.0945 C.2       1 <0>         0.0581
      8 C8          5.0597   -0.1007   -0.0531 C.2       1 <0>        -0.1706
      9 C9          5.9547   -1.1827   -0.0769 C.2       1 <0>        -0.1899
     10 C10         5.2248   -2.3178   -0.1316 C.2       1 <0>         0.0436
     11 N1          3.9037   -1.9823   -0.1376 N.pl3     1 <0>        -0.4177
     12 C11         2.7827   -2.9243   -0.1856 C.3       1 <0>         0.0710
     13 C12         2.3178   -3.2237    1.2162 C.2       1 <0>         0.5031
     14 O1          2.8698   -2.7006    2.1643 O.2       1 <0>        -0.5160
     15 N2          1.3024   -4.0614    1.4162 N.2       1 <0>        -0.7079
     16 C13         1.4724   -5.1432    2.1658 C.2       1 <0>         0.7055
     17 N3          2.6524   -5.3421    2.8170 N.pl3     1 <0>        -0.8641
     18 N4          0.4671   -6.0548    2.2840 N.pl3     1 <0>        -0.7014
     19 C14         0.6548   -7.2491    3.1115 C.3       1 <0>         0.1157
     20 C15        -0.6158   -8.1006    3.0738 C.3       1 <0>        -0.0719
     21 C16        -0.4227   -9.3291    3.9250 C.2       1 <0>        -0.1252
     22 C17         0.0945  -10.4879    3.3770 C.2       1 <0>        -0.1562
     23 C18         0.2554  -11.5752    4.1703 C.2       1 <0>        -0.1680
     24 S1         -0.3330  -10.9739    5.7449 S.3       1 <0>         0.0431
     25 C19        -0.7485   -9.3125    5.2406 C.2       1 <0>        -0.1677
     26 C20         5.7778   -3.7191   -0.1733 C.3       1 <0>         0.0205
     27 C21         5.1346   -4.5543    0.9356 C.3       1 <0>        -0.1070
     28 C22         5.6960   -5.9770    0.8932 C.3       1 <0>        -0.0834
     29 C23         7.2112   -5.9338    1.1009 C.3       1 <0>        -0.1090
     30 C24         7.8543   -5.0985   -0.0080 C.3       1 <0>        -0.0858
     31 C25         7.2930   -3.6759    0.0343 C.3       1 <0>        -0.0950
     32 C26         7.5436   -5.7292   -1.3669 C.3       1 <0>        -0.1084
     33 C27         6.0284   -5.7724   -1.5746 C.3       1 <0>        -0.0852
     34 C28         5.3852   -6.6076   -0.4657 C.3       1 <0>        -0.1082
     35 C29         5.4670   -4.3497   -1.5322 C.3       1 <0>        -0.1042
     36 H1         -0.7347    2.1826   -0.0726 H         1 <0>         0.1223
     37 H2         -0.7559   -0.1897    0.5780 H         1 <0>         0.1222
     38 H3          1.3312   -1.4911    0.5691 H         1 <0>         0.1221
     39 H4          3.4712    1.9864   -0.7418 H         1 <0>         0.1270
     40 H5          1.3730    3.2698   -0.7265 H         1 <0>         0.1254
     41 H6          5.3223    0.9460   -0.0100 H         1 <0>         0.1369
     42 H7          7.0326   -1.1186   -0.0560 H         1 <0>         0.1372
     43 H8          1.9631   -2.4850   -0.7542 H         1 <0>         0.1186
     44 H9          3.1046   -3.8479   -0.6667 H         1 <0>         0.1190
     45 H10         3.3392   -4.6575    2.7962 H         1 <0>         0.4237
     46 H11         2.8057   -6.1684    3.3014 H         1 <0>         0.4010
     47 H12        -0.3731   -5.9132    1.8204 H         1 <0>         0.4253
     48 H13         1.4929   -7.8299    2.7264 H         1 <0>         0.0723
     49 H14         0.8615   -6.9503    4.1392 H         1 <0>         0.0733
     50 H15        -1.4540   -7.5198    3.4589 H         1 <0>         0.0849
     51 H16        -0.8226   -8.3994    2.0461 H         1 <0>         0.0846
     52 H17         0.3660  -10.5266    2.3324 H         1 <0>         0.1350
     53 H18         0.6396  -12.5519    3.9157 H         1 <0>         0.1870
     54 H19        -1.1549   -8.5043    5.8305 H         1 <0>         0.1864
     55 H20         5.3560   -4.1050    1.9037 H         1 <0>         0.0664
     56 H21         4.0551   -4.5851    0.7876 H         1 <0>         0.0529
     57 H22         5.2378   -6.5720    1.6832 H         1 <0>         0.0661
     58 H23         7.4325   -5.4845    2.0690 H         1 <0>         0.0628
     59 H24         7.6111   -6.9473    1.0707 H         1 <0>         0.0635
     60 H25         8.9338   -5.0678    0.1400 H         1 <0>         0.0742
     61 H26         7.7512   -3.0808   -0.7557 H         1 <0>         0.0705
     62 H27         7.5143   -3.2266    1.0025 H         1 <0>         0.0687
     63 H28         8.0018   -5.1342   -2.1569 H         1 <0>         0.0644
     64 H29         7.9435   -6.7427   -1.3971 H         1 <0>         0.0631
     65 H30         5.8070   -6.2217   -2.5427 H         1 <0>         0.0722
     66 H31         5.7851   -7.6212   -0.4958 H         1 <0>         0.0646
     67 H32         4.3057   -6.6384   -0.6136 H         1 <0>         0.0568
     68 H33         4.3875   -4.3805   -1.6802 H         1 <0>         0.0559
     69 H34         5.9252   -3.7547   -2.3222 H         1 <0>         0.0706
@<TRIPOS>BOND
     1    1    6 ar
     2    1    2 ar
     3    1   36 1
     4    2    3 ar
     5    2   37 1
     6    3    4 ar
     7    3   38 1
     8    4    5 ar
     9    4    7 1
    10    5    6 ar
    11    5   39 1
    12    6   40 1
    13    7   11 1
    14    7    8 2
    15    8    9 1
    16    8   41 1
    17    9   10 2
    18    9   42 1
    19   10   11 1
    20   10   26 1
    21   11   12 1
    22   12   13 1
    23   12   43 1
    24   12   44 1
    25   13   14 2
    26   13   15 1
    27   15   16 2
    28   16   17 1
    29   16   18 1
    30   17   45 1
    31   17   46 1
    32   18   19 1
    33   18   47 1
    34   19   20 1
    35   19   48 1
    36   19   49 1
    37   20   21 1
    38   20   50 1
    39   20   51 1
    40   21   25 2
    41   21   22 1
    42   22   23 2
    43   22   52 1
    44   23   24 1
    45   23   53 1
    46   24   25 1
    47   25   54 1
    48   26   31 1
    49   26   35 1
    50   26   27 1
    51   27   28 1
    52   27   55 1
    53   27   56 1
    54   28   34 1
    55   28   29 1
    56   28   57 1
    57   29   30 1
    58   29   58 1
    59   29   59 1
    60   30   31 1
    61   30   32 1
    62   30   60 1
    63   31   61 1
    64   31   62 1
    65   32   33 1
    66   32   63 1
    67   32   64 1
    68   33   34 1
    69   33   35 1
    70   33   65 1
    71   34   66 1
    72   34   67 1
    73   35   68 1
    74   35   69 1
@<TRIPOS>MOLECULE
CHEMBL206442
   58    62     0     0     0
SMALL
USER_CHARGES

@<TRIPOS>ATOM
      1 C1         -0.0363    1.3976    0.0833 C.ar      1 <0>        -0.1198
      2 C2          1.1517    2.1041    0.0696 C.ar      1 <0>        -0.1205
      3 C3          2.3574    1.4285    0.0409 C.ar      1 <0>        -0.1156
      4 C4          2.3750    0.0463    0.0263 C.ar      1 <0>        -0.0766
      5 C5          1.1869   -0.6602    0.0409 C.ar      1 <0>        -0.0973
      6 C6         -0.0188    0.0154    0.0682 C.ar      1 <0>        -0.1200
      7 C7          3.6893   -0.6902   -0.0060 C.3       1 <0>         0.0939
      8 N1          4.1424   -0.9438    1.3681 N.3       1 <0>        -0.5235
      9 C8          4.4553    0.3138    2.0599 C.3       1 <0>         0.0378
     10 C9          4.7475    0.0222    3.5356 C.3       1 <0>         0.1518
     11 N2          5.7965   -1.0061    3.6098 N.pl3     1 <0>        -0.6791
     12 C10         5.6169   -2.2409    2.8312 C.3       1 <0>         0.1464
     13 C11         5.2905   -1.8601    1.3832 C.3       1 <0>         0.0310
     14 C12         6.9356   -0.8144    4.4000 C.ar      1 <0>         0.1656
     15 C13         6.9419   -1.2300    5.7233 C.ar      1 <0>        -0.0999
     16 C14         8.0679   -1.0399    6.5022 C.ar      1 <0>        -0.0964
     17 C15         9.1909   -0.4353    5.9658 C.ar      1 <0>        -0.0772
     18 C16         9.1931   -0.0178    4.6473 C.ar      1 <0>        -0.0886
     19 C17         8.0694   -0.2101    3.8574 C.ar      1 <0>         0.1398
     20 N3          8.0711    0.2070    2.5202 N.am      1 <0>        -0.6538
     21 C18         8.7364    1.3235    2.1634 C.2       1 <0>         0.5796
     22 O1          9.4007    1.9248    2.9861 O.2       1 <0>        -0.5144
     23 C19         8.6592    1.8154    0.7777 C.2       1 <0>        -0.2864
     24 C20         9.3380    2.9591    0.3791 C.2       1 <0>         0.0912
     25 C21         9.1897    3.3889   -0.9648 C.ar      1 <0>        -0.1722
     26 C22         9.9998    4.4121   -1.4784 C.ar      1 <0>        -0.0383
     27 C23         9.8735    4.7856   -2.7855 C.ar      1 <0>        -0.1412
     28 C24         8.9438    4.1670   -3.6101 C.ar      1 <0>        -0.0460
     29 C25         8.1232    3.1718   -3.1210 C.ar      1 <0>        -0.1361
     30 C26         8.2287    2.7800   -1.7932 C.ar      1 <0>         0.1520
     31 O2          7.3994    1.8343   -1.2899 O.3       1 <0>        -0.2679
     32 C27         7.8630    1.1096   -0.2428 C.2       1 <0>         0.5265
     33 O3          7.6279   -0.0802   -0.1450 O.2       1 <0>        -0.4385
     34 Br1        10.7268   -0.1785    7.0387 Br        1 <0>        -0.0445
     35 H1         -0.9782    1.9254    0.1103 H         1 <0>         0.1206
     36 H2          1.1380    3.1840    0.0811 H         1 <0>         0.1202
     37 H3          3.2856    1.9805    0.0295 H         1 <0>         0.1146
     38 H4          1.2007   -1.7400    0.0291 H         1 <0>         0.1222
     39 H5         -0.9470   -0.5366    0.0792 H         1 <0>         0.1218
     40 H6          3.5615   -1.6388   -0.5274 H         1 <0>         0.0841
     41 H7          4.4316   -0.0861   -0.5277 H         1 <0>         0.0425
     42 H8          5.3297    0.7741    1.6000 H         1 <0>         0.0259
     43 H9          3.6050    0.9916    1.9845 H         1 <0>         0.0862
     44 H10         5.0911    0.9321    4.0276 H         1 <0>         0.0699
     45 H11         3.8430   -0.3417    4.0230 H         1 <0>         0.0638
     46 H12         6.5355   -2.8271    2.8575 H         1 <0>         0.0729
     47 H13         4.7960   -2.8223    3.2509 H         1 <0>         0.0647
     48 H14         5.0460   -2.7589    0.8171 H         1 <0>         0.0835
     49 H15         6.1534   -1.3696    0.9328 H         1 <0>         0.0477
     50 H16         6.0669   -1.7020    6.1452 H         1 <0>         0.1382
     51 H17         8.0709   -1.3638    7.5325 H         1 <0>         0.1362
     52 H18        10.0711    0.4541    4.2316 H         1 <0>         0.1505
     53 H19         7.5935   -0.3077    1.8510 H         1 <0>         0.4208
     54 H20         9.9605    3.5058    1.0719 H         1 <0>         0.1693
     55 H21        10.7210    4.9031   -0.8419 H         1 <0>         0.1462
     56 H22        10.5022    5.5695   -3.1813 H         1 <0>         0.1416
     57 H23         8.8619    4.4679   -4.6441 H         1 <0>         0.1458
     58 H24         7.4008    2.6984   -3.7694 H         1 <0>         0.1485
@<TRIPOS>BOND
     1    1    6 ar
     2    1    2 ar
     3    1   35 1
     4    2    3 ar
     5    2   36 1
     6    3    4 ar
     7    3   37 1
     8    4    5 ar
     9    4    7 1
    10    5    6 ar
    11    5   38 1
    12    6   39 1
    13    7    8 1
    14    7   40 1
    15    7   41 1
    16    8   13 1
    17    8    9 1
    18    9   10 1
    19    9   42 1
    20    9   43 1
    21   10   11 1
    22   10   44 1
    23   10   45 1
    24   11   12 1
    25   11   14 1
    26   12   13 1
    27   12   46 1
    28   12   47 1
    29   13   48 1
    30   13   49 1
    31   14   19 ar
    32   14   15 ar
    33   15   16 ar
    34   15   50 1
    35   16   17 ar
    36   16   51 1
    37   17   18 ar
    38   17   34 1
    39   18   19 ar
    40   18   52 1
    41   19   20 1
    42   20   21 am
    43   20   53 1
    44   21   22 2
    45   21   23 1
    46   23   32 1
    47   23   24 2
    48   24   25 1
    49   24   54 1
    50   25   30 ar
    51   25   26 ar
    52   26   27 ar
    53   26   55 1
    54   27   28 ar
    55   27   56 1
    56   28   29 ar
    57   28   57 1
    58   29   30 ar
    59   29   58 1
    60   30   31 1
    61   31   32 1
    62   32   33 2
@<TRIPOS>MOLECULE
CHEMBL206442__1
   59    63     0     0     0
SMALL
USER_CHARGES

@<TRIPOS>ATOM
      1 C1         -0.0361    1.3964    0.0838 C.ar      1 <0>        -0.0839
      2 C2          1.1520    2.1028    0.0694 C.ar      1 <0>        -0.1127
      3 C3          2.3576    1.4271    0.0406 C.ar      1 <0>        -0.0980
      4 C4          2.3751    0.0449    0.0268 C.ar      1 <0>        -0.1591
      5 C5          1.1869   -0.6615    0.0421 C.ar      1 <0>        -0.0923
      6 C6         -0.0187    0.0142    0.0694 C.ar      1 <0>        -0.1120
      7 C7          3.6893   -0.6918   -0.0056 C.3       1 <0>         0.0425
      8 N1          4.1428   -0.9447    1.3686 N.4       1 <0>        -0.3759
      9 C8          4.4192    0.3346    2.0342 C.3       1 <0>        -0.0305
     10 C9          4.7817    0.0784    3.5007 C.3       1 <0>         0.1227
     11 N2          5.8950   -0.8821    3.5450 N.pl3     1 <0>        -0.6753
     12 C10         5.7691   -2.1256    2.7692 C.3       1 <0>         0.1162
     13 C11         5.3600   -1.7654    1.3372 C.3       1 <0>        -0.0342
     14 C12         7.0417   -0.6200    4.3033 C.ar      1 <0>         0.1366
     15 C13         7.1109   -1.0342    5.6252 C.ar      1 <0>        -0.0895
     16 C14         8.2443   -0.7745    6.3726 C.ar      1 <0>        -0.0943
     17 C15         9.3123   -0.1016    5.8060 C.ar      1 <0>        -0.0657
     18 C16         9.2516    0.3149    4.4885 C.ar      1 <0>        -0.0879
     19 C17         8.1204    0.0532    3.7301 C.ar      1 <0>         0.1483
     20 N3          8.0588    0.4693    2.3940 N.am      1 <0>        -0.6625
     21 C18         8.6434    1.6248    2.0204 C.2       1 <0>         0.5806
     22 O1          9.2920    2.2662    2.8251 O.2       1 <0>        -0.5014
     23 C19         8.4971    2.1107    0.6382 C.2       1 <0>        -0.3077
     24 C20         9.0924    3.2940    0.2224 C.2       1 <0>         0.1120
     25 C21         8.8802    3.7135   -1.1162 C.ar      1 <0>        -0.1778
     26 C22         9.6108    4.7848   -1.6507 C.ar      1 <0>        -0.0328
     27 C23         9.4250    5.1495   -2.9532 C.ar      1 <0>        -0.1359
     28 C24         8.5126    4.4743   -3.7524 C.ar      1 <0>        -0.0375
     29 C25         7.7692    3.4303   -3.2420 C.ar      1 <0>        -0.1358
     30 C26         7.9359    3.0461   -1.9183 C.ar      1 <0>         0.1496
     31 O2          7.1811    2.0511   -1.3934 O.3       1 <0>        -0.2700
     32 C27         7.7178    1.3567   -0.3607 C.2       1 <0>         0.5336
     33 O3          7.5597    0.1546   -0.2581 O.2       1 <0>        -0.4641
     34 Br1        10.8588    0.2500    6.8358 Br        1 <0>        -0.0262
     35 H1         -0.9779    1.9243    0.1107 H         1 <0>         0.1359
     36 H2          1.1384    3.1827    0.0802 H         1 <0>         0.1356
     37 H3          3.2858    1.9790    0.0287 H         1 <0>         0.1278
     38 H4          1.2006   -1.7414    0.0309 H         1 <0>         0.1317
     39 H5         -0.9469   -0.5377    0.0810 H         1 <0>         0.1364
     40 H6          3.5612   -1.6407   -0.5264 H         1 <0>         0.1390
     41 H7          4.4315   -0.0880   -0.5278 H         1 <0>         0.1335
     42 H8          5.2516    0.8314    1.5355 H         1 <0>         0.1188
     43 H9          3.5344    0.9691    1.9840 H         1 <0>         0.1403
     44 H10         5.0855    1.0133    3.9717 H         1 <0>         0.1154
     45 H11         3.9198   -0.3355    4.0241 H         1 <0>         0.0849
     46 H12         6.7257   -2.6479    2.7565 H         1 <0>         0.1181
     47 H13         5.0069   -2.7621    3.2187 H         1 <0>         0.0862
     48 H14         5.1684   -2.6783    0.7734 H         1 <0>         0.1424
     49 H15         6.1639   -1.2051    0.8596 H         1 <0>         0.1336
     50 H16         6.2789   -1.5593    6.0708 H         1 <0>         0.1406
     51 H17         8.2963   -1.0974    7.4019 H         1 <0>         0.1425
     52 H18        10.0868    0.8401    4.0492 H         1 <0>         0.1551
     53 H19         7.5953   -0.0741    1.7376 H         1 <0>         0.4121
     54 H20         9.6991    3.8783    0.8983 H         1 <0>         0.1721
     55 H21        10.3177    5.3197   -1.0339 H         1 <0>         0.1500
     56 H22         9.9926    5.9707   -3.3653 H         1 <0>         0.1465
     57 H23         8.3833    4.7694   -4.7832 H         1 <0>         0.1502
     58 H24         7.0596    2.9130   -3.8706 H         1 <0>         0.1499
     59 H25         3.4209   -1.4353    1.8748 H         1 <0>         0.4221
@<TRIPOS>BOND
     1    1    6 ar
     2    1    2 ar
     3    1   35 1
     4    2    3 ar
     5    2   36 1
     6    3    4 ar
     7    3   37 1
     8    4    5 ar
     9    4    7 1
    10    5    6 ar
    11    5   38 1
    12    6   39 1
    13    7    8 1
    14    7   40 1
    15    7   41 1
    16    8   13 1
    17    8    9 1
    18    8   59 1
    19    9   10 1
    20    9   42 1
    21    9   43 1
    22   10   11 1
    23   10   44 1
    24   10   45 1
    25   11   12 1
    26   11   14 1
    27   12   13 1
    28   12   46 1
    29   12   47 1
    30   13   48 1
    31   13   49 1
    32   14   19 ar
    33   14   15 ar
    34   15   16 ar
    35   15   50 1
    36   16   17 ar
    37   16   51 1
    38   17   18 ar
    39   17   34 1
    40   18   19 ar
    41   18   52 1
    42   19   20 1
    43   20   21 am
    44   20   53 1
    45   21   22 2
    46   21   23 1
    47   23   32 1
    48   23   24 2
    49   24   25 1
    50   24   54 1
    51   25   30 ar
    52   25   26 ar
    53   26   27 ar
    54   26   55 1
    55   27   28 ar
    56   27   56 1
    57   28   29 ar
    58   28   57 1
    59   29   30 ar
    60   29   58 1
    61   30   31 1
    62   31   32 1
    63   32   33 2
@<TRIPOS>MOLECULE
CHEMBL1093807
   68    71     0     0     0
SMALL
USER_CHARGES

@<TRIPOS>ATOM
      1 C1          0.0094    1.0260    2.8710 C.3       1 <0>        -0.1545
      2 C2          0.0095   -0.3336    2.1693 C.3       1 <0>        -0.1242
      3 C3         -1.4186   -0.8799    2.1156 C.3       1 <0>        -0.1176
      4 C4         -1.4186   -2.2395    1.4139 C.3       1 <0>        -0.1198
      5 C5         -2.8467   -2.7858    1.3602 C.3       1 <0>         0.0592
      6 O1         -2.8466   -4.0556    0.7048 O.3       1 <0>        -0.3161
      7 C6         -4.0453   -4.6820    0.5732 C.ar      1 <0>         0.1308
      8 C7         -5.1979   -4.0808    1.0613 C.ar      1 <0>        -0.2022
      9 C8         -6.4159   -4.7130    0.9302 C.ar      1 <0>        -0.0542
     10 C9         -6.4896   -5.9595    0.3052 C.ar      1 <0>        -0.0379
     11 C10        -5.3282   -6.5603   -0.1847 C.ar      1 <0>        -0.0804
     12 C11        -4.1150   -5.9188   -0.0541 C.ar      1 <0>        -0.1458
     13 C12        -7.7929   -6.6410    0.1629 C.2       1 <0>         0.0889
     14 C13        -8.9915   -6.0347   -0.0787 C.2       1 <0>        -0.1837
     15 C14        -9.9678   -7.0353   -0.1412 C.2       1 <0>        -0.1520
     16 C15        -9.3461   -8.2327    0.0634 C.2       1 <0>         0.0435
     17 N1         -8.0072   -7.9932    0.2448 N.pl3     1 <0>        -0.4166
     18 C16        -6.9807   -9.0097    0.4882 C.3       1 <0>         0.1451
     19 C17        -6.9375   -9.3380    1.9584 C.ar      1 <0>         0.1164
     20 C18        -7.0760  -10.6490    2.3667 C.ar      1 <0>        -0.1766
     21 C19        -7.0358  -10.9480    3.7221 C.ar      1 <0>        -0.1271
     22 C20        -6.8564   -9.9088    4.6231 C.ar      1 <0>         0.0236
     23 C21        -6.7235   -8.6074    4.1374 C.ar      1 <0>         0.4009
     24 N2         -6.7625   -8.3681    2.8367 N.ar      1 <0>        -0.4858
     25 N3         -6.5432   -7.5527    5.0285 N.pl3     1 <0>        -0.8432
     26 O2         -6.8111  -10.1546    5.9601 O.3       1 <0>        -0.3055
     27 C22        -6.9557  -11.5143    6.3750 C.3       1 <0>         0.0609
     28 C23        -6.8790  -11.5928    7.9011 C.3       1 <0>         0.0780
     29 O3         -7.9939  -10.9033    8.4701 O.3       1 <0>        -0.5666
     30 C24       -10.0002   -9.5573    0.0810 C.ar      1 <0>        -0.0020
     31 C25        -9.4867  -10.6034   -0.6881 C.ar      1 <0>        -0.1063
     32 C26       -10.1018  -11.8378   -0.6667 C.ar      1 <0>        -0.1117
     33 C27       -11.2260  -12.0413    0.1143 C.ar      1 <0>        -0.1069
     34 C28       -11.7409  -11.0101    0.8791 C.ar      1 <0>        -0.1080
     35 C29       -11.1319   -9.7707    0.8719 C.ar      1 <0>        -0.0181
     36 Cl1       -11.7748   -8.4794    1.8377 Cl        1 <0>        -0.0549
     37 H1          1.0269    1.4152    2.9092 H         1 <0>         0.0553
     38 H2         -0.6245    1.7198    2.3189 H         1 <0>         0.0544
     39 H3         -0.3741    0.9115    3.8849 H         1 <0>         0.0541
     40 H4          0.3930   -0.2191    1.1554 H         1 <0>         0.0633
     41 H5          0.6435   -1.0274    2.7214 H         1 <0>         0.0630
     42 H6         -1.8021   -0.9944    3.1295 H         1 <0>         0.0651
     43 H7         -2.0526   -0.1861    1.5635 H         1 <0>         0.0656
     44 H8         -1.0350   -2.1250    0.4000 H         1 <0>         0.0741
     45 H9         -0.7846   -2.9333    1.9660 H         1 <0>         0.0735
     46 H10        -3.2302   -2.9003    2.3741 H         1 <0>         0.0618
     47 H11        -3.4806   -2.0920    0.8081 H         1 <0>         0.0626
     48 H12        -5.1400   -3.1167    1.5446 H         1 <0>         0.1287
     49 H13        -7.3118   -4.2450    1.3108 H         1 <0>         0.1282
     50 H14        -5.3808   -7.5245   -0.6684 H         1 <0>         0.1260
     51 H15        -3.2168   -6.3810   -0.4363 H         1 <0>         0.1301
     52 H16        -9.1567   -4.9743   -0.1994 H         1 <0>         0.1378
     53 H17       -11.0226   -6.8867   -0.3192 H         1 <0>         0.1367
     54 H18        -7.2191   -9.9098   -0.0783 H         1 <0>         0.1040
     55 H19        -6.0096   -8.6283    0.1725 H         1 <0>         0.1146
     56 H20        -7.2147  -11.4349    1.6390 H         1 <0>         0.1323
     57 H21        -7.1421  -11.9660    4.0668 H         1 <0>         0.1380
     58 H22        -6.5104   -7.7241    5.9826 H         1 <0>         0.4125
     59 H23        -6.4504   -6.6465    4.6951 H         1 <0>         0.4042
     60 H24        -7.9200  -11.8960    6.0396 H         1 <0>         0.0695
     61 H25        -6.1563  -12.1140    5.9398 H         1 <0>         0.0762
     62 H26        -6.9001  -12.6370    8.2128 H         1 <0>         0.0698
     63 H27        -5.9530  -11.1302    8.2426 H         1 <0>         0.0583
     64 H28        -8.0102  -10.9122    9.4369 H         1 <0>         0.3834
     65 H29        -8.6099  -10.4463   -1.2988 H         1 <0>         0.1290
     66 H30        -9.7053  -12.6475   -1.2614 H         1 <0>         0.1311
     67 H31       -11.7038  -13.0098    0.1265 H         1 <0>         0.1326
     68 H32       -12.6187  -11.1756    1.4862 H         1 <0>         0.1349
@<TRIPOS>BOND
     1    1    2 1
     2    1   37 1
     3    1   38 1
     4    1   39 1
     5    2    3 1
     6    2   40 1
     7    2   41 1
     8    3    4 1
     9    3   42 1
    10    3   43 1
    11    4    5 1
    12    4   44 1
    13    4   45 1
    14    5    6 1
    15    5   46 1
    16    5   47 1
    17    6    7 1
    18    7   12 ar
    19    7    8 ar
    20    8    9 ar
    21    8   48 1
    22    9   10 ar
    23    9   49 1
    24   10   11 ar
    25   10   13 1
    26   11   12 ar
    27   11   50 1
    28   12   51 1
    29   13   17 1
    30   13   14 2
    31   14   15 1
    32   14   52 1
    33   15   16 2
    34   15   53 1
    35   16   17 1
    36   16   30 1
    37   17   18 1
    38   18   19 1
    39   18   54 1
    40   18   55 1
    41   19   24 ar
    42   19   20 ar
    43   20   21 ar
    44   20   56 1
    45   21   22 ar
    46   21   57 1
    47   22   23 ar
    48   22   26 1
    49   23   24 ar
    50   23   25 1
    51   25   58 1
    52   25   59 1
    53   26   27 1
    54   27   28 1
    55   27   60 1
    56   27   61 1
    57   28   29 1
    58   28   62 1
    59   28   63 1
    60   29   64 1
    61   30   35 ar
    62   30   31 ar
    63   31   32 ar
    64   31   65 1
    65   32   33 ar
    66   32   66 1
    67   33   34 ar
    68   33   67 1
    69   34   35 ar
    70   34   68 1
    71   35   36 1
@<TRIPOS>MOLECULE
CHEMBL502289
   78    81     0     0     0
SMALL
USER_CHARGES

@<TRIPOS>ATOM
      1 C1         -0.0187    1.5258    0.0104 C.3       1 <0>        -0.1682
      2 C2          0.0021   -0.0041    0.0020 C.3       1 <0>         0.1214
      3 N1          0.6878   -0.4765   -1.2033 N.pl3     1 <0>        -0.7458
      4 C3          0.8319   -1.8470   -1.4331 C.ar      1 <0>         0.2369
      5 C4          0.3204   -2.7599   -0.5223 C.ar      1 <0>        -0.1914
      6 C5          0.4643   -4.1279   -0.7527 C.ar      1 <0>        -0.0601
      7 C6          1.1227   -4.5734   -1.8992 C.ar      1 <0>        -0.1454
      8 C7          1.6317   -3.6553   -2.8056 C.ar      1 <0>         0.2209
      9 C8          1.4819   -2.2939   -2.5757 C.ar      1 <0>        -0.2002
     10 N2          2.2915   -4.1006   -3.9537 N.pl3     1 <0>        -0.9357
     11 C9          3.2893   -3.2581   -4.6299 C.3       1 <0>         0.1002
     12 C10         2.8738   -3.0444   -6.0842 C.3       1 <0>        -0.1588
     13 C11         2.8851   -4.3660   -6.8487 C.3       1 <0>        -0.1153
     14 C12         1.7297   -5.2521   -6.3688 C.3       1 <0>        -0.6079
     15 S1          1.9780   -5.6041   -4.5953 S.o2      1 <0>         2.5832
     16 O1          3.1735   -6.3463   -4.3978 O.2       1 <0>        -0.9375
     17 O2          0.7568   -6.0141   -3.9955 O.2       1 <0>        -0.9371
     18 C13        -0.0793   -5.1038    0.2162 C.2       1 <0>         0.5641
     19 O3          0.0469   -6.2957    0.0140 O.2       1 <0>        -0.4951
     20 N3         -0.7146   -4.6717    1.3235 N.am      1 <0>        -0.7254
     21 C14        -1.2531   -5.6386    2.2834 C.3       1 <0>         0.1266
     22 H1         -1.6191   -6.5155    1.7493 H         1 <0>         0.1107
     23 C15        -0.1506   -6.0582    3.2576 C.3       1 <0>        -0.1008
     24 C16         0.9271   -6.7985    2.5081 C.ar      1 <0>        -0.0811
     25 C17         0.8481   -8.1706    2.3599 C.ar      1 <0>        -0.1069
     26 C18         1.8366   -8.8496    1.6724 C.ar      1 <0>        -0.1113
     27 C19         2.9039   -8.1564    1.1327 C.ar      1 <0>        -0.1097
     28 C20         2.9824   -6.7842    1.2801 C.ar      1 <0>        -0.1088
     29 C21         1.9917   -6.1047    1.9639 C.ar      1 <0>        -0.1053
     30 C22        -2.4044   -4.9979    3.0612 C.3       1 <0>         0.0747
     31 H2         -3.1493   -4.6192    2.3614 H         1 <0>         0.1347
     32 C23        -3.0474   -6.0439    3.9741 C.3       1 <0>        -0.0481
     33 N4         -4.2258   -5.4625    4.6309 N.4       1 <0>        -0.5060
     34 C24        -4.8432   -6.4667    5.5074 C.3       1 <0>         0.0512
     35 C25        -6.0521   -5.8703    6.1811 C.ar      1 <0>        -0.2231
     36 C26        -5.9257   -5.2203    7.3963 C.ar      1 <0>         0.0002
     37 C27        -7.0772   -4.6822    7.9839 C.ar      1 <0>        -0.0601
     38 C28        -8.2994   -4.8225    7.3236 C.ar      1 <0>         0.1907
     39 N5         -8.3678   -5.4500    6.1682 N.ar      1 <0>        -0.4676
     40 C29        -7.2985   -5.9618    5.5886 C.ar      1 <0>         0.1606
     41 C30        -7.0027   -4.0001    9.2408 C.1       1 <0>         0.2293
     42 N6         -6.9435   -3.4591   10.2380 N.1       1 <0>        -0.3630
     43 O4         -1.9023   -3.9191    3.8526 O.3       1 <0>        -0.5499
     44 H3          1.0039    1.9031    0.0027 H         1 <0>         0.0638
     45 H4         -0.5459    1.8868   -0.8726 H         1 <0>         0.0634
     46 H5         -0.5289    1.8773    0.9072 H         1 <0>         0.0743
     47 H6          0.5293   -0.3651    0.8851 H         1 <0>         0.0592
     48 H7         -1.0205   -0.3814    0.0098 H         1 <0>         0.0582
     49 H8          1.0417    0.1622   -1.8418 H         1 <0>         0.4029
     50 H9         -0.1885   -2.4116    0.3644 H         1 <0>         0.1226
     51 H10         1.2361   -5.6320   -2.0805 H         1 <0>         0.1463
     52 H11         1.8756   -1.5811   -3.2852 H         1 <0>         0.1325
     53 H12         3.3532   -2.2943   -4.1249 H         1 <0>         0.1017
     54 H13         4.2614   -3.7500   -4.5983 H         1 <0>         0.0909
     55 H14         1.8694   -2.6219   -6.1122 H         1 <0>         0.0814
     56 H15         3.5680   -2.3500   -6.5575 H         1 <0>         0.1008
     57 H16         2.7722   -4.1690   -7.9148 H         1 <0>         0.0951
     58 H17         3.8314   -4.8779   -6.6737 H         1 <0>         0.0867
     59 H18         0.7830   -4.7317   -6.5137 H         1 <0>         0.1382
     60 H19         1.7256   -6.1864   -6.9303 H         1 <0>         0.1394
     61 H20        -0.8154   -3.7206    1.4848 H         1 <0>         0.4052
     62 H21         0.2765   -5.1718    3.7267 H         1 <0>         0.0813
     63 H22        -0.5716   -6.7082    4.0247 H         1 <0>         0.0785
     64 H23         0.0142   -8.7121    2.7816 H         1 <0>         0.1118
     65 H24         1.7752   -9.9217    1.5573 H         1 <0>         0.1196
     66 H25         3.6765   -8.6870    0.5961 H         1 <0>         0.1207
     67 H26         3.8164   -6.2427    0.8587 H         1 <0>         0.1183
     68 H27         2.0511   -5.0321    2.0759 H         1 <0>         0.1108
     69 H28        -3.3507   -6.9066    3.3810 H         1 <0>         0.1514
     70 H29        -2.3279   -6.3577    4.7304 H         1 <0>         0.1438
     71 H30        -3.9451   -4.6639    5.1800 H         1 <0>         0.4324
     72 H31        -5.1465   -7.3294    4.9143 H         1 <0>         0.1492
     73 H32        -4.1237   -6.7805    6.2636 H         1 <0>         0.1453
     74 H33        -4.9638   -5.1307    7.8792 H         1 <0>         0.1565
     75 H34        -9.1963   -4.4131    7.7645 H         1 <0>         0.1819
     76 H35        -7.3990   -6.4643    4.6379 H         1 <0>         0.1739
     77 H36        -1.2335   -4.1835    4.4990 H         1 <0>         0.3916
     78 H37        -4.8919   -5.1720    3.9309 H         1 <0>         0.4304
@<TRIPOS>BOND
     1    1    2 1
     2    1   44 1
     3    1   45 1
     4    1   46 1
     5    2    3 1
     6    2   47 1
     7    2   48 1
     8    3    4 1
     9    3   49 1
    10    4    9 ar
    11    4    5 ar
    12    5    6 ar
    13    5   50 1
    14    6    7 ar
    15    6   18 1
    16    7    8 ar
    17    7   51 1
    18    8    9 ar
    19    8   10 1
    20    9   52 1
    21   10   15 1
    22   10   11 1
    23   11   12 1
    24   11   53 1
    25   11   54 1
    26   12   13 1
    27   12   55 1
    28   12   56 1
    29   13   14 1
    30   13   57 1
    31   13   58 1
    32   14   15 1
    33   14   59 1
    34   14   60 1
    35   15   16 2
    36   15   17 2
    37   18   19 2
    38   18   20 am
    39   20   21 1
    40   20   61 1
    41   21   22 1
    42   21   23 1
    43   21   30 1
    44   23   24 1
    45   23   62 1
    46   23   63 1
    47   24   29 ar
    48   24   25 ar
    49   25   26 ar
    50   25   64 1
    51   26   27 ar
    52   26   65 1
    53   27   28 ar
    54   27   66 1
    55   28   29 ar
    56   28   67 1
    57   29   68 1
    58   30   31 1
    59   30   32 1
    60   30   43 1
    61   32   33 1
    62   32   69 1
    63   32   70 1
    64   33   34 1
    65   33   71 1
    66   33   78 1
    67   34   35 1
    68   34   72 1
    69   34   73 1
    70   35   40 ar
    71   35   36 ar
    72   36   37 ar
    73   36   74 1
    74   37   38 ar
    75   37   41 1
    76   38   39 ar
    77   38   75 1
    78   39   40 ar
    79   40   76 1
    80   41   42 3
    81   43   77 1
@<TRIPOS>MOLECULE
CHEMBL502289__1
   77    80     0     0     0
SMALL
USER_CHARGES

@<TRIPOS>ATOM
      1 C1         -0.0187    1.5258    0.0104 C.3       1 <0>        -0.1657
      2 C2          0.0021   -0.0041    0.0020 C.3       1 <0>         0.1185
      3 N1         -1.3723   -0.5112    0.0124 N.pl3     1 <0>        -0.7464
      4 C3         -1.6089   -1.8880    0.0073 C.ar      1 <0>         0.2349
      5 C4         -0.5417   -2.7744   -0.0019 C.ar      1 <0>        -0.1880
      6 C5         -0.7789   -4.1488   -0.0065 C.ar      1 <0>        -0.0527
      7 C6         -2.0893   -4.6274   -0.0020 C.ar      1 <0>        -0.1468
      8 C7         -3.1515   -3.7357    0.0072 C.ar      1 <0>         0.2154
      9 C8         -2.9118   -2.3677    0.0171 C.ar      1 <0>        -0.2041
     10 N2         -4.4641   -4.2140    0.0113 N.pl3     1 <0>        -0.9349
     11 C9         -5.5693   -3.4009   -0.5177 C.3       1 <0>         0.1013
     12 C10        -6.6262   -3.2098    0.5684 C.3       1 <0>        -0.1585
     13 C11        -7.2606   -4.5465    0.9455 C.3       1 <0>        -0.1139
     14 C12        -6.2455   -5.4047    1.7093 C.3       1 <0>        -0.6106
     15 S1         -4.8252   -5.7250    0.6088 S.o2      1 <0>         2.5831
     16 O1         -5.2330   -6.4817   -0.5227 O.2       1 <0>        -0.9394
     17 O2         -3.6853   -6.1039    1.3680 O.2       1 <0>        -0.9325
     18 C13         0.3562   -5.0967   -0.0168 C.2       1 <0>         0.5581
     19 O3          0.1479   -6.2942   -0.0208 O.2       1 <0>        -0.5033
     20 N3          1.6215   -4.6327   -0.0216 N.am      1 <0>        -0.7194
     21 C14         2.7460   -5.5716   -0.0318 C.3       1 <0>         0.1236
     22 H1          2.4885   -6.4532    0.5553 H         1 <0>         0.1016
     23 C15         3.0491   -5.9888   -1.4723 C.3       1 <0>        -0.1001
     24 C16         1.8802   -6.7606   -2.0283 C.ar      1 <0>        -0.0670
     25 C17         1.8258   -8.1340   -1.8809 C.ar      1 <0>        -0.1069
     26 C18         0.7536   -8.8419   -2.3909 C.ar      1 <0>        -0.1128
     27 C19        -0.2644   -8.1764   -3.0478 C.ar      1 <0>        -0.1186
     28 C20        -0.2105   -6.8029   -3.1944 C.ar      1 <0>        -0.1117
     29 C21         0.8596   -6.0945   -2.6806 C.ar      1 <0>        -0.1076
     30 C22         3.9787   -4.8977    0.5741 C.3       1 <0>         0.1021
     31 H2          3.7356   -4.5215    1.5678 H         1 <0>         0.1192
     32 C23         5.1167   -5.9150    0.6782 C.3       1 <0>         0.0281
     33 N4          6.2596   -5.3023    1.3684 N.3       1 <0>        -0.6801
     34 C24         7.3739   -6.2522    1.4870 C.3       1 <0>         0.1015
     35 C25         8.5253   -5.5896    2.1985 C.ar      1 <0>        -0.1366
     36 C26         9.4881   -4.9018    1.4808 C.ar      1 <0>        -0.0210
     37 C27        10.5392   -4.3025    2.1857 C.ar      1 <0>        -0.0787
     38 C28        10.5731   -4.4226    3.5763 C.ar      1 <0>         0.1558
     39 N5          9.6326   -5.0880    4.2138 N.ar      1 <0>        -0.4789
     40 C29         8.6277   -5.6577    3.5761 C.ar      1 <0>         0.1521
     41 C30        11.5622   -3.5793    1.4920 C.1       1 <0>         0.2519
     42 N6         12.3737   -3.0056    0.9418 N.1       1 <0>        -0.4009
     43 O4          4.3859   -3.8112   -0.2601 O.3       1 <0>        -0.5557
     44 H3          1.0039    1.9031    0.0027 H         1 <0>         0.0745
     45 H4         -0.5459    1.8868   -0.8726 H         1 <0>         0.0614
     46 H5         -0.5289    1.8773    0.9072 H         1 <0>         0.0616
     47 H6          0.5123   -0.3556   -0.8948 H         1 <0>         0.0609
     48 H7          0.5293   -0.3651    0.8851 H         1 <0>         0.0614
     49 H8         -2.1181    0.1091    0.0229 H         1 <0>         0.4003
     50 H9          0.4715   -2.4006   -0.0057 H         1 <0>         0.1255
     51 H10        -2.2764   -5.6911   -0.0059 H         1 <0>         0.1455
     52 H11        -3.7407   -1.6755    0.0284 H         1 <0>         0.1296
     53 H12        -5.1882   -2.4283   -0.8289 H         1 <0>         0.1013
     54 H13        -6.0154   -3.9071   -1.3738 H         1 <0>         0.0887
     55 H14        -6.1592   -2.7724    1.4508 H         1 <0>         0.0815
     56 H15        -7.4004   -2.5359    0.2014 H         1 <0>         0.0986
     57 H16        -8.1322   -4.3691    1.5756 H         1 <0>         0.0927
     58 H17        -7.5692   -5.0695    0.0403 H         1 <0>         0.0855
     59 H18        -5.9110   -4.8727    2.5998 H         1 <0>         0.1379
     60 H19        -6.7062   -6.3498    1.9968 H         1 <0>         0.1377
     61 H20         1.7877   -3.6770   -0.0184 H         1 <0>         0.4025
     62 H21         3.2196   -5.1000   -2.0797 H         1 <0>         0.0757
     63 H22         3.9400   -6.6166   -1.4889 H         1 <0>         0.0824
     64 H23         2.6212   -8.6539   -1.3677 H         1 <0>         0.1133
     65 H24         0.7115   -9.9150   -2.2765 H         1 <0>         0.1163
     66 H25        -1.1018   -8.7296   -3.4469 H         1 <0>         0.1161
     67 H26        -1.0057   -6.2830   -3.7079 H         1 <0>         0.1142
     68 H27         0.8999   -5.0210   -2.7918 H         1 <0>         0.1094
     69 H28         4.7764   -6.7846    1.2405 H         1 <0>         0.0892
     70 H29         5.4198   -6.2248   -0.3219 H         1 <0>         0.0423
     71 H30         6.5530   -4.4571    0.9019 H         1 <0>         0.3503
     72 H31         7.0492   -7.1241    2.0548 H         1 <0>         0.0918
     73 H32         7.6926   -6.5643    0.4924 H         1 <0>         0.0469
     74 H33         9.4304   -4.8294    0.4048 H         1 <0>         0.1427
     75 H34        11.3777   -3.9662    4.1338 H         1 <0>         0.1676
     76 H35         7.8750   -6.1898    4.1389 H         1 <0>         0.1668
     77 H36         4.6180   -4.0730   -1.1616 H         1 <0>         0.3735
@<TRIPOS>BOND
     1    1    2 1
     2    1   44 1
     3    1   45 1
     4    1   46 1
     5    2    3 1
     6    2   47 1
     7    2   48 1
     8    3    4 1
     9    3   49 1
    10    4    9 ar
    11    4    5 ar
    12    5    6 ar
    13    5   50 1
    14    6    7 ar
    15    6   18 1
    16    7    8 ar
    17    7   51 1
    18    8    9 ar
    19    8   10 1
    20    9   52 1
    21   10   15 1
    22   10   11 1
    23   11   12 1
    24   11   53 1
    25   11   54 1
    26   12   13 1
    27   12   55 1
    28   12   56 1
    29   13   14 1
    30   13   57 1
    31   13   58 1
    32   14   15 1
    33   14   59 1
    34   14   60 1
    35   15   16 2
    36   15   17 2
    37   18   19 2
    38   18   20 am
    39   20   21 1
    40   20   61 1
    41   21   22 1
    42   21   23 1
    43   21   30 1
    44   23   24 1
    45   23   62 1
    46   23   63 1
    47   24   29 ar
    48   24   25 ar
    49   25   26 ar
    50   25   64 1
    51   26   27 ar
    52   26   65 1
    53   27   28 ar
    54   27   66 1
    55   28   29 ar
    56   28   67 1
    57   29   68 1
    58   30   31 1
    59   30   32 1
    60   30   43 1
    61   32   33 1
    62   32   69 1
    63   32   70 1
    64   33   34 1
    65   33   71 1
    66   34   35 1
    67   34   72 1
    68   34   73 1
    69   35   40 ar
    70   35   36 ar
    71   36   37 ar
    72   36   74 1
    73   37   38 ar
    74   37   41 1
    75   38   39 ar
    76   38   75 1
    77   39   40 ar
    78   40   76 1
    79   41   42 3
    80   43   77 1
@<TRIPOS>MOLECULE
CHEMBL514310
   75    79     0     0     0
SMALL
USER_CHARGES

@<TRIPOS>ATOM
      1 C1         -0.0184    1.5028    0.0103 C.3       1 <0>        -0.0884
      2 C2          0.0021   -0.0041    0.0020 C.2       1 <0>         0.0629
      3 C3         -1.0895   -0.7892    0.0028 C.2       1 <0>        -0.2032
      4 C4         -0.6018   -2.1668   -0.0078 C.ar      1 <0>        -0.0376
      5 C5         -1.2277   -3.4301   -0.0122 C.ar      1 <0>        -0.0941
      6 C6         -0.4473   -4.5795   -0.0230 C.ar      1 <0>        -0.0402
      7 C7          0.9458   -4.4767   -0.0293 C.ar      1 <0>        -0.1415
      8 C8          1.5649   -3.2260   -0.0245 C.ar      1 <0>        -0.0362
      9 C9          0.8011   -2.0710   -0.0143 C.ar      1 <0>         0.0344
     10 O1          1.1125   -0.7579   -0.0131 O.3       1 <0>        -0.1846
     11 C10         1.7701   -5.7015   -0.0407 C.2       1 <0>         0.5716
     12 O2          1.2360   -6.7937   -0.0445 O.2       1 <0>        -0.5296
     13 N1          3.1147   -5.6088   -0.0469 N.am      1 <0>        -0.7203
     14 C11         3.9326   -6.8242   -0.0582 C.3       1 <0>         0.1237
     15 H1          3.4341   -7.5921   -0.6497 H         1 <0>         0.1160
     16 C12         5.2989   -6.5137   -0.6729 C.3       1 <0>        -0.0903
     17 C13         5.1241   -6.1373   -2.1216 C.ar      1 <0>        -0.0965
     18 C14         5.1586   -7.1145   -3.0987 C.ar      1 <0>        -0.1118
     19 C15         4.9983   -6.7692   -4.4276 C.ar      1 <0>        -0.1129
     20 C16         4.8031   -5.4467   -4.7793 C.ar      1 <0>        -0.1117
     21 C17         4.7677   -4.4696   -3.8022 C.ar      1 <0>        -0.1140
     22 C18         4.9237   -4.8154   -2.4729 C.ar      1 <0>        -0.1140
     23 C19         4.1202   -7.3260    1.3749 C.3       1 <0>         0.0709
     24 H2          4.6187   -6.5581    1.9664 H         1 <0>         0.0839
     25 C20         2.7540   -7.6365    1.9896 C.3       1 <0>         0.0052
     26 N2          2.9243   -8.0034    3.4018 N.4       1 <0>        -0.4775
     27 C21         1.6125   -8.3015    3.9919 C.3       1 <0>        -0.0826
     28 C22         1.1240   -7.3943    5.1229 C.3       1 <0>        -0.1551
     29 C23         1.5867   -8.8197    5.4313 C.3       1 <0>        -0.1529
     30 O3          4.9181   -8.5115    1.3639 O.3       1 <0>        -0.5620
     31 C24        -2.6988   -3.5307   -0.0050 C.2       1 <0>         0.5603
     32 O4         -3.3772   -2.5216    0.0048 O.2       1 <0>        -0.5180
     33 N3         -3.2915   -4.7411   -0.0092 N.am      1 <0>        -0.7187
     34 C25        -4.7531   -4.8411   -0.0020 C.3       1 <0>         0.1846
     35 H3         -5.1761   -4.0224   -0.5842 H         1 <0>         0.1011
     36 C26        -5.2628   -4.7592    1.4383 C.3       1 <0>        -0.1580
     37 C27        -5.1697   -6.1563   -0.6083 C.ar      1 <0>        -0.0966
     38 C28        -4.4574   -7.3059   -0.3218 C.ar      1 <0>        -0.1173
     39 C29        -4.8395   -8.5124   -0.8780 C.ar      1 <0>        -0.1155
     40 C30        -5.9341   -8.5694   -1.7202 C.ar      1 <0>        -0.1154
     41 C31        -6.6469   -7.4200   -2.0060 C.ar      1 <0>        -0.1115
     42 C32        -6.2674   -6.2142   -1.4464 C.ar      1 <0>        -0.1049
     43 H4          1.0042    1.8801    0.0026 H         1 <0>         0.0846
     44 H5         -0.5455    1.8639   -0.8728 H         1 <0>         0.0993
     45 H6         -0.5286    1.8543    0.9071 H         1 <0>         0.0989
     46 H7         -2.1201   -0.4664    0.0103 H         1 <0>         0.1756
     47 H8         -0.9174   -5.5518   -0.0260 H         1 <0>         0.1453
     48 H9          2.6428   -3.1587   -0.0292 H         1 <0>         0.1379
     49 H10         3.5408   -4.7375   -0.0439 H         1 <0>         0.4077
     50 H11         5.7593   -5.6849   -0.1351 H         1 <0>         0.0867
     51 H12         5.9382   -7.3936   -0.6007 H         1 <0>         0.0958
     52 H13         5.3112   -8.1478   -2.8238 H         1 <0>         0.1226
     53 H14         5.0260   -7.5326   -5.1910 H         1 <0>         0.1263
     54 H15         4.6785   -5.1769   -5.8176 H         1 <0>         0.1260
     55 H16         4.6154   -3.4363   -4.0771 H         1 <0>         0.1251
     56 H17         4.8923   -4.0525   -1.7092 H         1 <0>         0.1159
     57 H18         2.1147   -6.7566    1.9174 H         1 <0>         0.1420
     58 H19         2.2935   -8.4653    1.4518 H         1 <0>         0.1485
     59 H20         3.5161   -8.8179    3.4686 H         1 <0>         0.4342
     60 H21         0.8650   -8.6937    3.3023 H         1 <0>         0.1780
     61 H22         1.7760   -6.5762    5.4290 H         1 <0>         0.1197
     62 H23         0.0549   -7.1893    5.1775 H         1 <0>         0.1334
     63 H24         0.8219   -9.5524    5.6888 H         1 <0>         0.1344
     64 H25         2.5431   -8.9393    5.9403 H         1 <0>         0.1209
     65 H26         5.8000   -8.3885    0.9868 H         1 <0>         0.4050
     66 H27        -2.7504   -5.5461   -0.0170 H         1 <0>         0.3980
     67 H28        -4.8398   -5.5779    2.0205 H         1 <0>         0.0581
     68 H29        -4.9615   -3.8079    1.8768 H         1 <0>         0.0664
     69 H30        -6.3502   -4.8336    1.4436 H         1 <0>         0.0726
     70 H31        -3.6022   -7.2614    0.3362 H         1 <0>         0.1157
     71 H32        -4.2826   -9.4104   -0.6547 H         1 <0>         0.1233
     72 H33        -6.2322   -9.5118   -2.1553 H         1 <0>         0.1253
     73 H34        -7.5020   -7.4644   -2.6643 H         1 <0>         0.1276
     74 H35        -6.8265   -5.3169   -1.6667 H         1 <0>         0.1268
     75 H36         3.3506   -7.2362    3.8996 H         1 <0>         0.4206
@<TRIPOS>BOND
     1    1    2 1
     2    1   43 1
     3    1   44 1
     4    1   45 1
     5    2   10 1
     6    2    3 2
     7    3    4 1
     8    3   46 1
     9    4    9 ar
    10    4    5 ar
    11    5    6 ar
    12    5   31 1
    13    6    7 ar
    14    6   47 1
    15    7    8 ar
    16    7   11 1
    17    8    9 ar
    18    8   48 1
    19    9   10 1
    20   11   12 2
    21   11   13 am
    22   13   14 1
    23   13   49 1
    24   14   15 1
    25   14   16 1
    26   14   23 1
    27   16   17 1
    28   16   50 1
    29   16   51 1
    30   17   22 ar
    31   17   18 ar
    32   18   19 ar
    33   18   52 1
    34   19   20 ar
    35   19   53 1
    36   20   21 ar
    37   20   54 1
    38   21   22 ar
    39   21   55 1
    40   22   56 1
    41   23   24 1
    42   23   25 1
    43   23   30 1
    44   25   26 1
    45   25   57 1
    46   25   58 1
    47   26   27 1
    48   26   59 1
    49   26   75 1
    50   27   29 1
    51   27   28 1
    52   27   60 1
    53   28   29 1
    54   28   61 1
    55   28   62 1
    56   29   63 1
    57   29   64 1
    58   30   65 1
    59   31   32 2
    60   31   33 am
    61   33   34 1
    62   33   66 1
    63   34   35 1
    64   34   36 1
    65   34   37 1
    66   36   67 1
    67   36   68 1
    68   36   69 1
    69   37   42 ar
    70   37   38 ar
    71   38   39 ar
    72   38   70 1
    73   39   40 ar
    74   39   71 1
    75   40   41 ar
    76   40   72 1
    77   41   42 ar
    78   41   73 1
    79   42   74 1
@<TRIPOS>MOLECULE
CHEMBL447220
   79    83     0     0     0
SMALL
USER_CHARGES

@<TRIPOS>ATOM
      1 C1         -0.0187    1.5258    0.0104 C.3       1 <0>        -0.1469
      2 C2          0.0021   -0.0041    0.0020 C.3       1 <0>        -0.0495
      3 C3         -1.4117   -0.5257    0.0127 C.2       1 <0>        -0.1595
      4 C4         -2.1204   -0.8907    1.0923 C.2       1 <0>         0.0581
      5 N1         -3.3652   -1.3124    0.7126 N.pl3     1 <0>        -0.5832
      6 H1         -4.0558   -1.6248    1.3178 H         1 <0>         0.4194
      7 C5         -3.4927   -1.2278   -0.6537 C.ar      1 <0>         0.1330
      8 C6         -2.2772   -0.7251   -1.1536 C.ar      1 <0>        -0.1042
      9 C7         -2.1128   -0.5254   -2.5229 C.ar      1 <0>        -0.0224
     10 C8         -3.1576   -0.8220   -3.3924 C.ar      1 <0>        -0.1613
     11 C9         -4.3689   -1.3191   -2.8927 C.ar      1 <0>        -0.0326
     12 C10        -4.5340   -1.5263   -1.5388 C.ar      1 <0>         0.1286
     13 N2         -5.7492   -2.0215   -1.0492 N.am      1 <0>        -0.5833
     14 C11        -6.8871   -1.1822   -0.6560 C.3       1 <0>         0.1029
     15 C12        -8.1039   -2.1328   -0.6099 C.3       1 <0>        -0.1317
     16 C13        -7.4276   -3.4978   -0.3440 C.3       1 <0>        -0.1545
     17 C14        -6.0251   -3.3267   -0.8844 C.2       1 <0>         0.5177
     18 O1         -5.2599   -4.2350   -1.1307 O.2       1 <0>        -0.5143
     19 C15        -2.9901   -0.6122   -4.8445 C.2       1 <0>         0.5721
     20 O2         -3.9024   -0.8710   -5.6053 O.2       1 <0>        -0.5080
     21 N3         -1.8259   -0.1339   -5.3263 N.am      1 <0>        -0.7269
     22 C16        -1.6597    0.0743   -6.7669 C.3       1 <0>         0.1282
     23 H2         -2.2000   -0.7006   -7.3107 H         1 <0>         0.1096
     24 C17        -2.2138    1.4477   -7.1511 C.3       1 <0>        -0.1018
     25 C18        -3.7018    1.4733   -6.9136 C.ar      1 <0>        -0.0780
     26 C19        -4.5690    1.0924   -7.9204 C.ar      1 <0>        -0.1064
     27 C20        -5.9339    1.1159   -7.7026 C.ar      1 <0>        -0.1115
     28 C21        -6.4315    1.5199   -6.4778 C.ar      1 <0>        -0.1109
     29 C22        -5.5642    1.8999   -5.4707 C.ar      1 <0>        -0.1091
     30 C23        -4.1992    1.8723   -5.6871 C.ar      1 <0>        -0.1036
     31 C24        -0.1735    0.0059   -7.1240 C.3       1 <0>         0.0744
     32 H3          0.2421   -0.9377   -6.7704 H         1 <0>         0.1344
     33 C25        -0.0090    0.0985   -8.6423 C.3       1 <0>        -0.0478
     34 N4          1.4052   -0.0870   -8.9938 N.4       1 <0>        -0.5052
     35 C26         1.5632    0.0020  -10.4516 C.3       1 <0>         0.0466
     36 C27         3.0140   -0.1883  -10.8122 C.ar      1 <0>        -0.1683
     37 C28         3.8583    0.9044  -10.8809 C.ar      1 <0>        -0.0602
     38 C29         5.1889    0.7299  -11.2116 C.ar      1 <0>        -0.1108
     39 C30         5.6757   -0.5374  -11.4733 C.ar      1 <0>        -0.0360
     40 C31         4.8319   -1.6299  -11.4038 C.ar      1 <0>        -0.1745
     41 C32         3.5018   -1.4558  -11.0688 C.ar      1 <0>        -0.0436
     42 C33         5.3624   -3.0111  -11.6896 C.3       1 <0>         0.5060
     43 F1          6.7245   -2.9327  -11.9990 F         1 <0>        -0.1690
     44 F2          5.1861   -3.8208  -10.5624 F         1 <0>        -0.1726
     45 F3          4.6691   -3.5621  -12.7726 F         1 <0>        -0.1702
     46 O3          0.5161    1.0926   -6.5030 O.3       1 <0>        -0.5487
     47 H4          1.0039    1.9031    0.0027 H         1 <0>         0.0572
     48 H5         -0.5459    1.8868   -0.8726 H         1 <0>         0.0523
     49 H6         -0.5289    1.8773    0.9072 H         1 <0>         0.0555
     50 H7          0.5123   -0.3556   -0.8948 H         1 <0>         0.0687
     51 H8          0.5293   -0.3651    0.8851 H         1 <0>         0.0732
     52 H9         -1.7613   -0.8565    2.1103 H         1 <0>         0.1759
     53 H10        -1.1791   -0.1420   -2.9072 H         1 <0>         0.1263
     54 H11        -5.1763   -1.5475   -3.5727 H         1 <0>         0.1402
     55 H12        -6.7119   -0.7457    0.3273 H         1 <0>         0.0728
     56 H13        -7.0497   -0.3970   -1.3944 H         1 <0>         0.0837
     57 H14        -8.7770   -1.8657    0.2047 H         1 <0>         0.0967
     58 H15        -8.6312   -2.1381   -1.5638 H         1 <0>         0.0871
     59 H16        -7.4054   -3.7107    0.7248 H         1 <0>         0.1086
     60 H17        -7.9464   -4.2916   -0.8813 H         1 <0>         0.1080
     61 H18        -1.0980    0.0726   -4.7193 H         1 <0>         0.4053
     62 H19        -1.7356    2.2155   -6.5430 H         1 <0>         0.0820
     63 H20        -2.0107    1.6397   -8.2046 H         1 <0>         0.0786
     64 H21        -4.1803    0.7768   -8.8773 H         1 <0>         0.1116
     65 H22        -6.6115    0.8190   -8.4894 H         1 <0>         0.1190
     66 H23        -7.4979    1.5390   -6.3078 H         1 <0>         0.1192
     67 H24        -5.9530    2.2159   -4.5139 H         1 <0>         0.1168
     68 H25        -3.5214    2.1657   -4.8991 H         1 <0>         0.1108
     69 H26        -0.6070   -0.6772   -9.1205 H         1 <0>         0.1494
     70 H27        -0.3431    1.0778   -8.9849 H         1 <0>         0.1434
     71 H28         1.9588    0.6311   -8.5511 H         1 <0>         0.4328
     72 H29         0.9652   -0.7738  -10.9298 H         1 <0>         0.1433
     73 H30         1.2291    0.9813  -10.7942 H         1 <0>         0.1445
     74 H31         3.4780    1.8943  -10.6764 H         1 <0>         0.1436
     75 H32         5.8482    1.5835  -11.2659 H         1 <0>         0.1510
     76 H33         6.7152   -0.6737  -11.7325 H         1 <0>         0.1530
     77 H34         2.8433   -2.3098  -11.0108 H         1 <0>         0.1441
     78 H35         0.1979    1.9653   -6.7718 H         1 <0>         0.3912
     79 H36         1.7146   -0.9935   -8.6767 H         1 <0>         0.4298
@<TRIPOS>BOND
     1    1    2 1
     2    1   47 1
     3    1   48 1
     4    1   49 1
     5    2    3 1
     6    2   50 1
     7    2   51 1
     8    3    8 1
     9    3    4 2
    10    4    5 1
    11    4   52 1
    12    5    6 1
    13    5    7 1
    14    7   12 ar
    15    7    8 ar
    16    8    9 ar
    17    9   10 ar
    18    9   53 1
    19   10   11 ar
    20   10   19 1
    21   11   12 ar
    22   11   54 1
    23   12   13 1
    24   13   17 am
    25   13   14 1
    26   14   15 1
    27   14   55 1
    28   14   56 1
    29   15   16 1
    30   15   57 1
    31   15   58 1
    32   16   17 1
    33   16   59 1
    34   16   60 1
    35   17   18 2
    36   19   20 2
    37   19   21 am
    38   21   22 1
    39   21   61 1
    40   22   23 1
    41   22   24 1
    42   22   31 1
    43   24   25 1
    44   24   62 1
    45   24   63 1
    46   25   30 ar
    47   25   26 ar
    48   26   27 ar
    49   26   64 1
    50   27   28 ar
    51   27   65 1
    52   28   29 ar
    53   28   66 1
    54   29   30 ar
    55   29   67 1
    56   30   68 1
    57   31   32 1
    58   31   33 1
    59   31   46 1
    60   33   34 1
    61   33   69 1
    62   33   70 1
    63   34   35 1
    64   34   71 1
    65   34   79 1
    66   35   36 1
    67   35   72 1
    68   35   73 1
    69   36   41 ar
    70   36   37 ar
    71   37   38 ar
    72   37   74 1
    73   38   39 ar
    74   38   75 1
    75   39   40 ar
    76   39   76 1
    77   40   41 ar
    78   40   42 1
    79   41   77 1
    80   42   43 1
    81   42   44 1
    82   42   45 1
    83   46   78 1
@<TRIPOS>MOLECULE
CHEMBL1093806
   54    58     0     0     0
SMALL
USER_CHARGES

@<TRIPOS>ATOM
      1 C1         -0.5682    1.9327   -0.2714 C.ar      1 <0>        -0.1119
      2 C2          0.1289    2.4594   -1.3447 C.ar      1 <0>        -0.1082
      3 C3          1.0250    1.6748   -2.0482 C.ar      1 <0>        -0.1122
      4 C4          1.2296    0.3589   -1.6829 C.ar      1 <0>        -0.0085
      5 C5          0.5293   -0.1785   -0.6000 C.ar      1 <0>         0.0165
      6 C6         -0.3735    0.6201    0.1048 C.ar      1 <0>        -0.1045
      7 C7          0.7426   -1.5855   -0.2029 C.2       1 <0>         0.0728
      8 C8          1.9501   -2.1796    0.0230 C.2       1 <0>        -0.1630
      9 C9          1.7076   -3.5118    0.3759 C.2       1 <0>        -0.1721
     10 C10         0.3566   -3.7050    0.3585 C.2       1 <0>         0.0608
     11 N1         -0.2396   -2.5204    0.0086 N.pl3     1 <0>        -0.4187
     12 C11        -1.6810   -2.2925   -0.1205 C.3       1 <0>         0.1458
     13 C12        -2.0824   -2.4215   -1.5673 C.ar      1 <0>         0.1530
     14 C13        -3.1250   -3.2578   -1.9133 C.ar      1 <0>        -0.2295
     15 C14        -3.4906   -3.3728   -3.2478 C.ar      1 <0>        -0.0280
     16 C15        -2.7911   -2.6394   -4.1894 C.ar      1 <0>        -0.2347
     17 C16        -1.7513   -1.8163   -3.7698 C.ar      1 <0>         0.4132
     18 N2         -1.4363   -1.7296   -2.4865 N.ar      1 <0>        -0.5126
     19 N3         -1.0398   -1.0741   -4.7054 N.pl3     1 <0>        -0.8483
     20 C17        -0.3424   -4.9690    0.6688 C.ar      1 <0>        -0.0401
     21 C18        -1.5652   -5.2603    0.0598 C.ar      1 <0>        -0.1018
     22 C19        -2.2144   -6.4402    0.3511 C.ar      1 <0>        -0.1524
     23 C20        -1.6537   -7.3404    1.2506 C.ar      1 <0>         0.1727
     24 C21        -0.4366   -7.0532    1.8590 C.ar      1 <0>        -0.1576
     25 C22         0.2208   -5.8779    1.5674 C.ar      1 <0>        -0.0628
     26 N4         -2.3144   -8.5350    1.5439 N.pl3     1 <0>        -0.6728
     27 C23        -2.1656   -9.1252    2.8019 C.ar      1 <0>         0.0809
     28 C24        -1.9351   -8.3468    3.9339 C.ar      1 <0>         0.1081
     29 N5         -1.7999   -8.9440    5.1062 N.ar      1 <0>        -0.4884
     30 C25        -1.8805  -10.2553    5.2111 C.ar      1 <0>         0.2547
     31 N6         -2.0970  -11.0265    4.1644 N.ar      1 <0>        -0.4888
     32 C26        -2.2495  -10.5068    2.9578 C.ar      1 <0>         0.1041
     33 Cl1         2.3536   -0.6251   -2.5673 Cl        1 <0>        -0.0589
     34 H1         -1.2631    2.5524    0.2758 H         1 <0>         0.1277
     35 H2         -0.0277    3.4879   -1.6347 H         1 <0>         0.1299
     36 H3          1.5654    2.0920   -2.8850 H         1 <0>         0.1326
     37 H4         -0.9181    0.2109    0.9429 H         1 <0>         0.1247
     38 H5          2.9180   -1.7071   -0.0567 H         1 <0>         0.1377
     39 H6          2.4546   -4.2532    0.6182 H         1 <0>         0.1387
     40 H7         -2.2202   -3.0306    0.4733 H         1 <0>         0.1118
     41 H8         -1.9240   -1.2916    0.2361 H         1 <0>         0.1062
     42 H9         -3.6508   -3.8171   -1.1536 H         1 <0>         0.1334
     43 H10        -4.3024   -4.0204   -3.5441 H         1 <0>         0.1356
     44 H11        -3.0487   -2.7052   -5.2362 H         1 <0>         0.1312
     45 H12        -1.2692   -1.1316   -5.6461 H         1 <0>         0.4084
     46 H13        -0.3139   -0.4988   -4.4175 H         1 <0>         0.4041
     47 H14        -2.0015   -4.5612   -0.6383 H         1 <0>         0.1372
     48 H15        -3.1599   -6.6660   -0.1194 H         1 <0>         0.1274
     49 H16        -0.0041   -7.7541    2.5577 H         1 <0>         0.1248
     50 H17         1.1683   -5.6576    2.0366 H         1 <0>         0.1328
     51 H18        -2.8766   -8.9553    0.8745 H         1 <0>         0.4149
     52 H19        -1.8675   -7.2718    3.8554 H         1 <0>         0.1680
     53 H20        -1.7655  -10.7114    6.1833 H         1 <0>         0.1980
     54 H21        -2.4319  -11.1445    2.1055 H         1 <0>         0.1681
@<TRIPOS>BOND
     1    1    6 ar
     2    1    2 ar
     3    1   34 1
     4    2    3 ar
     5    2   35 1
     6    3    4 ar
     7    3   36 1
     8    4    5 ar
     9    4   33 1
    10    5    6 ar
    11    5    7 1
    12    6   37 1
    13    7   11 1
    14    7    8 2
    15    8    9 1
    16    8   38 1
    17    9   10 2
    18    9   39 1
    19   10   11 1
    20   10   20 1
    21   11   12 1
    22   12   13 1
    23   12   40 1
    24   12   41 1
    25   13   18 ar
    26   13   14 ar
    27   14   15 ar
    28   14   42 1
    29   15   16 ar
    30   15   43 1
    31   16   17 ar
    32   16   44 1
    33   17   18 ar
    34   17   19 1
    35   19   45 1
    36   19   46 1
    37   20   25 ar
    38   20   21 ar
    39   21   22 ar
    40   21   47 1
    41   22   23 ar
    42   22   48 1
    43   23   24 ar
    44   23   26 1
    45   24   25 ar
    46   24   49 1
    47   25   50 1
    48   26   27 1
    49   26   51 1
    50   27   32 ar
    51   27   28 ar
    52   28   29 ar
    53   28   52 1
    54   29   30 ar
    55   30   31 ar
    56   30   53 1
    57   31   32 ar
    58   32   54 1
@<TRIPOS>MOLECULE
CHEMBL402754
   74    78     0     0     0
SMALL
USER_CHARGES

@<TRIPOS>ATOM
      1 C1         -0.0167    1.3781    0.0096 C.ar      1 <0>        -0.1026
      2 C2          1.1709    2.0855    0.0021 C.ar      1 <0>        -0.1213
      3 C3          2.3773    1.4107   -0.0130 C.ar      1 <0>        -0.0990
      4 C4          2.3960    0.0285   -0.0201 C.ar      1 <0>        -0.1092
      5 C5          1.2084   -0.6789   -0.0117 C.ar      1 <0>        -0.0952
      6 C6          0.0021   -0.0041    0.0020 C.ar      1 <0>        -0.1195
      7 C7          3.7112   -0.7071   -0.0376 C.3       1 <0>         0.1019
      8 O1          4.1410   -0.9464    1.3041 O.3       1 <0>        -0.3586
      9 C8          5.3853   -1.6423    1.4004 C.3       1 <0>         0.0683
     10 H1          5.5221   -2.2929    0.5366 H         1 <0>         0.1093
     11 C9          5.4392   -2.4669    2.7070 C.3       1 <0>        -0.1282
     12 C10         6.9057   -2.2833    3.1723 C.3       1 <0>        -0.0084
     13 H2          7.5676   -2.9623    2.6348 H         1 <0>         0.1551
     14 N1          7.2010   -0.8719    2.8163 N.4       1 <0>        -0.5102
     15 C11         6.5508   -0.6413    1.5055 C.3       1 <0>        -0.0340
     16 C12         7.0241   -2.4993    4.6823 C.3       1 <0>         0.0944
     17 H3          6.3960   -1.7766    5.2031 H         1 <0>         0.1336
     18 C13         8.4807   -2.3119    5.1116 C.3       1 <0>         0.1079
     19 H4          8.8332   -1.3341    4.7834 H         1 <0>         0.0972
     20 C14         9.3439   -3.4044    4.4775 C.3       1 <0>        -0.1093
     21 C15        10.7938   -3.1493    4.7995 C.ar      1 <0>        -0.0187
     22 C16        11.5613   -2.3683    3.9563 C.ar      1 <0>        -0.1593
     23 C17        12.8938   -2.1335    4.2510 C.ar      1 <0>         0.1461
     24 C18        13.4569   -2.6810    5.3908 C.ar      1 <0>        -0.1858
     25 C19        12.6871   -3.4627    6.2348 C.ar      1 <0>         0.1492
     26 C20        11.3535   -3.6918    5.9408 C.ar      1 <0>        -0.1615
     27 F1         13.2354   -3.9977    7.3477 F         1 <0>        -0.1223
     28 F2         13.6441   -1.3707    3.4261 F         1 <0>        -0.1283
     29 N2          8.5750   -2.4005    6.5709 N.am      1 <0>        -0.7223
     30 C21         9.5897   -1.7945    7.2186 C.2       1 <0>         0.5319
     31 O2         10.4247   -1.1758    6.5934 O.2       1 <0>        -0.5077
     32 C22         9.6867   -1.8856    8.7197 C.3       1 <0>        -0.1256
     33 H5          8.7965   -1.4701    9.1921 H         1 <0>         0.1248
     34 C23         9.9225   -3.3455    9.1714 C.3       1 <0>        -0.1472
     35 C24        10.8652   -3.2221   10.3481 C.2       1 <0>         0.5198
     36 O3         11.0805   -4.0966   11.1604 O.2       1 <0>        -0.5080
     37 N3         11.4300   -2.0024   10.3620 N.am      1 <0>        -0.6136
     38 C25        10.9637   -1.1854    9.2347 C.3       1 <0>         0.1189
     39 C26        12.3874   -1.5463   11.3728 C.3       1 <0>         0.2123
     40 C27        13.7875   -1.8766   10.9237 C.2       1 <0>        -0.1795
     41 C28        14.6478   -1.1280   10.1911 C.2       1 <0>        -0.1366
     42 C29        15.8974   -1.6398    9.8954 C.2       1 <0>        -0.1650
     43 C30        16.2255   -2.8750   10.3468 C.2       1 <0>        -0.1685
     44 S1         14.7463   -3.3520   11.2254 S.3       1 <0>         0.0688
     45 O4          6.5979   -3.8236    5.0090 O.3       1 <0>        -0.5201
     46 H6         -0.9591    1.9053    0.0259 H         1 <0>         0.1285
     47 H7          1.1563    3.1654    0.0076 H         1 <0>         0.1277
     48 H8          3.3051    1.9634   -0.0196 H         1 <0>         0.1206
     49 H9          1.2231   -1.7588   -0.0176 H         1 <0>         0.1241
     50 H10        -0.9258   -0.5567    0.0082 H         1 <0>         0.1288
     51 H11         3.5884   -1.6586   -0.5549 H         1 <0>         0.0709
     52 H12         4.4573   -0.1052   -0.5563 H         1 <0>         0.0654
     53 H13         4.7468   -2.0640    3.4462 H         1 <0>         0.1163
     54 H14         5.2259   -3.5173    2.5093 H         1 <0>         0.1283
     55 H15         6.8155   -0.2499    3.5110 H         1 <0>         0.4341
     56 H16         7.2640   -0.8159    0.6999 H         1 <0>         0.1429
     57 H17         6.1701    0.3787    1.4534 H         1 <0>         0.1456
     58 H18         9.0492   -4.3761    4.8739 H         1 <0>         0.0985
     59 H19         9.2048   -3.3957    3.3964 H         1 <0>         0.0880
     60 H20        11.1218   -1.9412    3.0670 H         1 <0>         0.1316
     61 H21        14.4962   -2.4987    5.6212 H         1 <0>         0.1486
     62 H22        10.7515   -4.2980    6.6015 H         1 <0>         0.1346
     63 H23         7.9071   -2.8953    7.0709 H         1 <0>         0.4148
     64 H24         8.9840   -3.8053    9.4811 H         1 <0>         0.1146
     65 H25        10.3851   -3.9226    8.3707 H         1 <0>         0.1046
     66 H26        11.7207   -1.1574    8.4509 H         1 <0>         0.0893
     67 H27        10.7305   -0.1753    9.5712 H         1 <0>         0.0886
     68 H28        12.2923   -0.4683   11.5029 H         1 <0>         0.1053
     69 H29        12.1820   -2.0461   12.3194 H         1 <0>         0.1019
     70 H30        14.3612   -0.1466    9.8432 H         1 <0>         0.1295
     71 H31        16.6016   -1.0641    9.3131 H         1 <0>         0.1328
     72 H32        17.1447   -3.4260   10.2132 H         1 <0>         0.1857
     73 H33         7.1137   -4.5199    4.5798 H         1 <0>         0.3909
     74 H34         8.1975   -0.7339    2.7385 H         1 <0>         0.4335
@<TRIPOS>BOND
     1    1    6 ar
     2    1    2 ar
     3    1   46 1
     4    2    3 ar
     5    2   47 1
     6    3    4 ar
     7    3   48 1
     8    4    5 ar
     9    4    7 1
    10    5    6 ar
    11    5   49 1
    12    6   50 1
    13    7    8 1
    14    7   51 1
    15    7   52 1
    16    8    9 1
    17    9   10 1
    18    9   15 1
    19    9   11 1
    20   11   12 1
    21   11   53 1
    22   11   54 1
    23   12   13 1
    24   12   14 1
    25   12   16 1
    26   14   15 1
    27   14   55 1
    28   14   74 1
    29   15   56 1
    30   15   57 1
    31   16   17 1
    32   16   18 1
    33   16   45 1
    34   18   19 1
    35   18   20 1
    36   18   29 1
    37   20   21 1
    38   20   58 1
    39   20   59 1
    40   21   26 ar
    41   21   22 ar
    42   22   23 ar
    43   22   60 1
    44   23   24 ar
    45   23   28 1
    46   24   25 ar
    47   24   61 1
    48   25   26 ar
    49   25   27 1
    50   26   62 1
    51   29   30 am
    52   29   63 1
    53   30   31 2
    54   30   32 1
    55   32   33 1
    56   32   38 1
    57   32   34 1
    58   34   35 1
    59   34   64 1
    60   34   65 1
    61   35   36 2
    62   35   37 am
    63   37   38 1
    64   37   39 1
    65   38   66 1
    66   38   67 1
    67   39   40 1
    68   39   68 1
    69   39   69 1
    70   40   44 1
    71   40   41 2
    72   41   42 1
    73   41   70 1
    74   42   43 2
    75   42   71 1
    76   43   44 1
    77   43   72 1
    78   45   73 1
@<TRIPOS>MOLECULE
CHEMBL572081
   68    71     0     0     0
SMALL
USER_CHARGES

@<TRIPOS>ATOM
      1 C1         -6.2578   -4.2599    4.6979 C.3       1 <0>        -0.1824
      2 C2         -4.9871   -3.5664    4.2793 C.2       1 <0>         0.5122
      3 O1         -3.9731   -4.2095    4.1086 O.2       1 <0>        -0.5324
      4 N1         -4.9774   -2.2313    4.0947 N.am      1 <0>        -0.7324
      5 C3         -3.7420   -1.5571    3.6878 C.3       1 <0>         0.1321
      6 H1         -3.9274   -0.4875    3.5891 H         1 <0>         0.1052
      7 C4         -2.6609   -1.7920    4.7446 C.3       1 <0>        -0.0987
      8 C5         -3.0689   -1.1312    6.0361 C.ar      1 <0>        -0.0284
      9 C6         -2.7091    0.1799    6.2847 C.ar      1 <0>        -0.1647
     10 C7         -3.0831    0.7879    7.4713 C.ar      1 <0>         0.1397
     11 C8         -3.8180    0.0823    8.4083 C.ar      1 <0>        -0.1924
     12 C9         -4.1782   -1.2305    8.1580 C.ar      1 <0>         0.1390
     13 C10        -3.8076   -1.8349    6.9685 C.ar      1 <0>        -0.1581
     14 F1         -4.8955   -1.9203    9.0717 F         1 <0>        -0.1258
     15 F2         -2.7304    2.0692    7.7145 F         1 <0>        -0.1256
     16 C11        -3.2728   -2.1194    2.3445 C.3       1 <0>         0.0685
     17 H2         -3.0874   -3.1890    2.4431 H         1 <0>         0.1459
     18 C12        -4.3539   -1.8846    1.2876 C.3       1 <0>        -0.0571
     19 N2         -3.9562   -2.5287    0.0287 N.4       1 <0>        -0.4986
     20 C13        -4.9314   -2.1993   -1.0193 C.3       1 <0>         0.1167
     21 C14        -4.5273   -2.8853   -2.3258 C.3       1 <0>        -0.1320
     22 C15        -4.4950   -4.4007   -2.1173 C.3       1 <0>        -0.1357
     23 C16        -5.8826   -4.8869   -1.6939 C.3       1 <0>        -0.1329
     24 C17        -6.2866   -4.2008   -0.3874 C.3       1 <0>        -0.1344
     25 C18        -6.3189   -2.6855   -0.5959 C.3       1 <0>        -0.1375
     26 C19        -4.9631   -0.7067   -1.2247 C.ar      1 <0>        -0.0962
     27 C20        -3.8472    0.0552   -0.9296 C.ar      1 <0>        -0.1541
     28 C21        -3.8726    1.4248   -1.1167 C.ar      1 <0>        -0.0660
     29 C22        -5.0132    2.0364   -1.5996 C.ar      1 <0>        -0.1282
     30 C23        -6.1347    1.2743   -1.8972 C.ar      1 <0>         0.1946
     31 C24        -6.1046   -0.1017   -1.7127 C.ar      1 <0>        -0.1005
     32 N3         -7.2937    1.8920   -2.3874 N.pl3     1 <0>        -0.3394
     33 C25        -7.4231    3.1987   -2.7106 C.2       1 <0>         0.0519
     34 C26        -8.6910    3.3923   -3.1422 C.2       1 <0>        -0.2448
     35 C27        -9.3591    2.1645   -3.0812 C.2       1 <0>         0.0739
     36 N4         -8.5211    1.2638   -2.6348 N.2       1 <0>        -0.2945
     37 O2         -2.0678   -1.4618    1.9475 O.3       1 <0>        -0.5420
     38 H3         -6.3125   -4.2924    5.7860 H         1 <0>         0.1025
     39 H4         -7.1159   -3.7130    4.3072 H         1 <0>         0.0835
     40 H5         -6.2642   -5.2759    4.3033 H         1 <0>         0.0999
     41 H6         -5.7883   -1.7169    4.2312 H         1 <0>         0.4118
     42 H7         -2.5383   -2.8628    4.9073 H         1 <0>         0.1085
     43 H8         -1.7182   -1.3664    4.4008 H         1 <0>         0.1017
     44 H9         -2.1357    0.7302    5.5535 H         1 <0>         0.1430
     45 H10        -4.1098    0.5557    9.3342 H         1 <0>         0.1523
     46 H11        -4.0923   -2.8578    6.7711 H         1 <0>         0.1360
     47 H12        -5.2967   -2.3101    1.6315 H         1 <0>         0.1421
     48 H13        -4.4765   -0.8138    1.1250 H         1 <0>         0.1410
     49 H14        -3.0434   -2.1971   -0.2450 H         1 <0>         0.4280
     50 H15        -5.2509   -2.6409   -3.1035 H         1 <0>         0.1141
     51 H16        -3.5388   -2.5389   -2.6275 H         1 <0>         0.0923
     52 H17        -4.2072   -4.8895   -3.0481 H         1 <0>         0.0965
     53 H18        -3.7714   -4.6452   -1.3397 H         1 <0>         0.0585
     54 H19        -6.6062   -4.6425   -2.4716 H         1 <0>         0.0812
     55 H20        -5.8596   -5.9665   -1.5454 H         1 <0>         0.0833
     56 H21        -7.2751   -4.5472   -0.0858 H         1 <0>         0.0954
     57 H22        -5.5630   -4.4453    0.3902 H         1 <0>         0.0571
     58 H23        -6.6068   -2.1967    0.3348 H         1 <0>         0.0896
     59 H24        -7.0425   -2.4410   -1.3736 H         1 <0>         0.1155
     60 H25        -2.9543   -0.4207   -0.5519 H         1 <0>         0.1244
     61 H26        -2.9998    2.0172   -0.8847 H         1 <0>         0.1475
     62 H27        -5.0325    3.1063   -1.7452 H         1 <0>         0.1426
     63 H28        -6.9742   -0.6976   -1.9472 H         1 <0>         0.1497
     64 H29        -6.6532    3.9524   -2.6369 H         1 <0>         0.1821
     65 H30        -9.1126    4.3293   -3.4751 H         1 <0>         0.1623
     66 H31       -10.3879    1.9892   -3.3593 H         1 <0>         0.1972
     67 H32        -2.1589   -0.5051    1.8402 H         1 <0>         0.3861
     68 H33        -3.9260   -3.5290    0.1576 H         1 <0>         0.4291
@<TRIPOS>BOND
     1    1    2 1
     2    1   38 1
     3    1   39 1
     4    1   40 1
     5    2    3 2
     6    2    4 am
     7    4    5 1
     8    4   41 1
     9    5    6 1
    10    5    7 1
    11    5   16 1
    12    7    8 1
    13    7   42 1
    14    7   43 1
    15    8   13 ar
    16    8    9 ar
    17    9   10 ar
    18    9   44 1
    19   10   11 ar
    20   10   15 1
    21   11   12 ar
    22   11   45 1
    23   12   13 ar
    24   12   14 1
    25   13   46 1
    26   16   17 1
    27   16   18 1
    28   16   37 1
    29   18   19 1
    30   18   47 1
    31   18   48 1
    32   19   20 1
    33   19   49 1
    34   19   68 1
    35   20   25 1
    36   20   21 1
    37   20   26 1
    38   21   22 1
    39   21   50 1
    40   21   51 1
    41   22   23 1
    42   22   52 1
    43   22   53 1
    44   23   24 1
    45   23   54 1
    46   23   55 1
    47   24   25 1
    48   24   56 1
    49   24   57 1
    50   25   58 1
    51   25   59 1
    52   26   31 ar
    53   26   27 ar
    54   27   28 ar
    55   27   60 1
    56   28   29 ar
    57   28   61 1
    58   29   30 ar
    59   29   62 1
    60   30   31 ar
    61   30   32 1
    62   31   63 1
    63   32   36 1
    64   32   33 1
    65   33   34 2
    66   33   64 1
    67   34   35 1
    68   34   65 1
    69   35   36 2
    70   35   66 1
    71   37   67 1
@<TRIPOS>MOLECULE
CHEMBL1164612
   56    60     0     0     0
SMALL
USER_CHARGES

@<TRIPOS>ATOM
      1 C1         -0.0437    1.3551   -0.0280 C.ar      1 <0>        -0.1084
      2 C2          1.1381    2.0739   -0.0404 C.ar      1 <0>        -0.1189
      3 C3          2.3501    1.4138   -0.0515 C.ar      1 <0>        -0.1046
      4 C4          2.3818    0.0206   -0.0497 C.ar      1 <0>        -0.0619
      5 C5          1.1881   -0.6984   -0.0367 C.ar      1 <0>        -0.1013
      6 C6         -0.0182   -0.0279   -0.0261 C.ar      1 <0>        -0.1176
      7 C7          3.6815   -0.6945   -0.0621 C.ar      1 <0>        -0.0052
      8 C8          4.8743    0.0268   -0.0698 C.ar      1 <0>        -0.1205
      9 C9          6.0838   -0.6371   -0.0814 C.ar      1 <0>        -0.0948
     10 C10         6.1167   -2.0249   -0.0858 C.ar      1 <0>         0.1134
     11 C11         4.9253   -2.7522   -0.0782 C.ar      1 <0>         0.1555
     12 C12         3.7108   -2.0878   -0.0603 C.ar      1 <0>        -0.1105
     13 N1          4.9585   -4.1527   -0.0827 N.am      1 <0>        -0.6611
     14 C13         4.0241   -4.8511    0.5922 C.2       1 <0>         0.5831
     15 O1          3.1059   -4.2690    1.1379 O.2       1 <0>        -0.5098
     16 C14         4.1147   -6.3187    0.6691 C.2       1 <0>        -0.3003
     17 C15         3.1643   -7.0657    1.3519 C.2       1 <0>         0.1040
     18 C16         3.3362   -8.4728    1.4090 C.ar      1 <0>        -0.1772
     19 C17         2.3148   -9.2950    1.9067 C.ar      1 <0>        -0.0352
     20 C18         2.4792  -10.6504    1.9162 C.ar      1 <0>        -0.1384
     21 C19         3.6526  -11.2227    1.4444 C.ar      1 <0>        -0.0401
     22 C20         4.6780  -10.4321    0.9684 C.ar      1 <0>        -0.1366
     23 C21         4.5365   -9.0510    0.9558 C.ar      1 <0>         0.1513
     24 O2          5.5526   -8.2619    0.5313 O.3       1 <0>        -0.2690
     25 C22         5.2150   -7.0537    0.0188 C.2       1 <0>         0.5325
     26 O3          5.8004   -6.5892   -0.9414 O.2       1 <0>        -0.4523
     27 N2          7.3436   -2.6945   -0.0985 N.pl3     1 <0>        -0.6722
     28 C23         7.9996   -3.0475   -1.3670 C.3       1 <0>         0.1105
     29 C24         9.4527   -2.5644   -1.3133 C.3       1 <0>        -0.0222
     30 N3         10.1066   -3.1146   -0.1192 N.4       1 <0>        -0.5029
     31 C25         9.4681   -2.5816    1.0909 C.3       1 <0>        -0.0223
     32 C26         8.0185   -3.0606    1.1563 C.3       1 <0>         0.1161
     33 H1         -0.9899    1.8757   -0.0152 H         1 <0>         0.1266
     34 H2          1.1123    3.1535   -0.0418 H         1 <0>         0.1274
     35 H3          3.2722    1.9760   -0.0619 H         1 <0>         0.1255
     36 H4          1.2068   -1.7783   -0.0356 H         1 <0>         0.1263
     37 H5         -0.9439   -0.5841   -0.0164 H         1 <0>         0.1272
     38 H6          4.8518    1.1065   -0.0671 H         1 <0>         0.1332
     39 H7          7.0066   -0.0761   -0.0873 H         1 <0>         0.1271
     40 H8          2.7877   -2.6483   -0.0498 H         1 <0>         0.1495
     41 H9          5.6541   -4.6197   -0.5715 H         1 <0>         0.4179
     42 H10         2.3189   -6.5894    1.8261 H         1 <0>         0.1699
     43 H11         1.4013   -8.8575    2.2816 H         1 <0>         0.1482
     44 H12         1.6896  -11.2827    2.2945 H         1 <0>         0.1447
     45 H13         3.7639  -12.2969    1.4503 H         1 <0>         0.1488
     46 H14         5.5886  -10.8864    0.6067 H         1 <0>         0.1497
     47 H15         7.9778   -4.1289   -1.5020 H         1 <0>         0.0807
     48 H16         7.4824   -2.5617   -2.1944 H         1 <0>         0.1183
     49 H17         9.9810   -2.9018   -2.2050 H         1 <0>         0.1398
     50 H18         9.4723   -1.4755   -1.2693 H         1 <0>         0.1332
     51 H19        10.0251   -4.1203   -0.1259 H         1 <0>         0.4275
     52 H20        10.0078   -2.9317    1.9708 H         1 <0>         0.1393
     53 H21         9.4872   -1.4922    1.0622 H         1 <0>         0.1334
     54 H22         7.5138   -2.5834    1.9964 H         1 <0>         0.1167
     55 H23         7.9987   -4.1433    1.2805 H         1 <0>         0.0747
     56 H24        11.0825   -2.8586   -0.1237 H         1 <0>         0.4312
@<TRIPOS>BOND
     1    1    6 ar
     2    1    2 ar
     3    1   33 1
     4    2    3 ar
     5    2   34 1
     6    3    4 ar
     7    3   35 1
     8    4    5 ar
     9    4    7 1
    10    5    6 ar
    11    5   36 1
    12    6   37 1
    13    7   12 ar
    14    7    8 ar
    15    8    9 ar
    16    8   38 1
    17    9   10 ar
    18    9   39 1
    19   10   11 ar
    20   10   27 1
    21   11   12 ar
    22   11   13 1
    23   12   40 1
    24   13   14 am
    25   13   41 1
    26   14   15 2
    27   14   16 1
    28   16   25 1
    29   16   17 2
    30   17   18 1
    31   17   42 1
    32   18   23 ar
    33   18   19 ar
    34   19   20 ar
    35   19   43 1
    36   20   21 ar
    37   20   44 1
    38   21   22 ar
    39   21   45 1
    40   22   23 ar
    41   22   46 1
    42   23   24 1
    43   24   25 1
    44   25   26 2
    45   27   32 1
    46   27   28 1
    47   28   29 1
    48   28   47 1
    49   28   48 1
    50   29   30 1
    51   29   49 1
    52   29   50 1
    53   30   31 1
    54   30   51 1
    55   30   56 1
    56   31   32 1
    57   31   52 1
    58   31   53 1
    59   32   54 1
    60   32   55 1
@<TRIPOS>MOLECULE
CHEMBL404682
   74    78     0     0     0
SMALL
USER_CHARGES

@<TRIPOS>ATOM
      1 C1         -0.0167    1.3781    0.0096 C.ar      1 <0>        -0.1026
      2 C2          1.1709    2.0855    0.0021 C.ar      1 <0>        -0.1213
      3 C3          2.3773    1.4107   -0.0130 C.ar      1 <0>        -0.0990
      4 C4          2.3960    0.0285   -0.0201 C.ar      1 <0>        -0.1092
      5 C5          1.2084   -0.6789   -0.0117 C.ar      1 <0>        -0.0952
      6 C6          0.0021   -0.0041    0.0020 C.ar      1 <0>        -0.1195
      7 C7          3.7112   -0.7071   -0.0376 C.3       1 <0>         0.1019
      8 O1          4.1410   -0.9464    1.3041 O.3       1 <0>        -0.3587
      9 C8          5.3853   -1.6423    1.4004 C.3       1 <0>         0.0682
     10 H1          5.5221   -2.2929    0.5366 H         1 <0>         0.1093
     11 C9          5.4392   -2.4669    2.7070 C.3       1 <0>        -0.1282
     12 C10         6.9057   -2.2833    3.1723 C.3       1 <0>        -0.0084
     13 H2          7.5676   -2.9623    2.6348 H         1 <0>         0.1551
     14 N1          7.2010   -0.8719    2.8163 N.4       1 <0>        -0.5102
     15 C11         6.5508   -0.6413    1.5055 C.3       1 <0>        -0.0340
     16 C12         7.0241   -2.4993    4.6823 C.3       1 <0>         0.0944
     17 H3          6.3960   -1.7766    5.2031 H         1 <0>         0.1337
     18 C13         8.4807   -2.3119    5.1116 C.3       1 <0>         0.1078
     19 H4          8.8332   -1.3341    4.7834 H         1 <0>         0.0973
     20 C14         9.3439   -3.4044    4.4775 C.3       1 <0>        -0.1093
     21 C15        10.7938   -3.1493    4.7995 C.ar      1 <0>        -0.0188
     22 C16        11.5613   -2.3683    3.9563 C.ar      1 <0>        -0.1590
     23 C17        12.8938   -2.1335    4.2510 C.ar      1 <0>         0.1462
     24 C18        13.4569   -2.6810    5.3908 C.ar      1 <0>        -0.1855
     25 C19        12.6871   -3.4627    6.2348 C.ar      1 <0>         0.1490
     26 C20        11.3535   -3.6918    5.9408 C.ar      1 <0>        -0.1617
     27 F1         13.2354   -3.9977    7.3477 F         1 <0>        -0.1233
     28 F2         13.6441   -1.3707    3.4261 F         1 <0>        -0.1281
     29 N2          8.5750   -2.4005    6.5709 N.am      1 <0>        -0.7222
     30 C21         9.5897   -1.7945    7.2186 C.2       1 <0>         0.5318
     31 O2         10.4247   -1.1758    6.5934 O.2       1 <0>        -0.5076
     32 C22         9.6867   -1.8856    8.7197 C.3       1 <0>        -0.1255
     33 H5          8.7965   -1.4701    9.1921 H         1 <0>         0.1254
     34 C23         9.9225   -3.3455    9.1714 C.3       1 <0>        -0.1469
     35 C24        10.8652   -3.2221   10.3481 C.2       1 <0>         0.5202
     36 O3         11.0805   -4.0966   11.1604 O.2       1 <0>        -0.5067
     37 N3         11.4300   -2.0024   10.3620 N.am      1 <0>        -0.6154
     38 C25        10.9637   -1.1854    9.2347 C.3       1 <0>         0.1182
     39 C26        12.3874   -1.5463   11.3728 C.3       1 <0>         0.2074
     40 C27        13.7875   -1.8766   10.9237 C.2       1 <0>        -0.0431
     41 C28        14.5879   -1.0796   10.1933 C.2       1 <0>        -0.1888
     42 C29        15.8010   -1.7805   10.0036 C.2       1 <0>        -0.2189
     43 C30        15.6694   -2.9639   10.6293 C.2       1 <0>        -0.0261
     44 O4         14.4499   -3.0142   11.1898 O.3       1 <0>        -0.1650
     45 O5          6.5979   -3.8236    5.0090 O.3       1 <0>        -0.5201
     46 H6         -0.9591    1.9053    0.0259 H         1 <0>         0.1285
     47 H7          1.1563    3.1654    0.0076 H         1 <0>         0.1277
     48 H8          3.3051    1.9634   -0.0196 H         1 <0>         0.1206
     49 H9          1.2231   -1.7588   -0.0176 H         1 <0>         0.1241
     50 H10        -0.9258   -0.5567    0.0082 H         1 <0>         0.1288
     51 H11         3.5884   -1.6586   -0.5549 H         1 <0>         0.0709
     52 H12         4.4573   -0.1052   -0.5563 H         1 <0>         0.0654
     53 H13         4.7468   -2.0640    3.4462 H         1 <0>         0.1163
     54 H14         5.2259   -3.5173    2.5093 H         1 <0>         0.1283
     55 H15         6.8155   -0.2499    3.5110 H         1 <0>         0.4341
     56 H16         7.2640   -0.8159    0.6999 H         1 <0>         0.1429
     57 H17         6.1701    0.3787    1.4534 H         1 <0>         0.1456
     58 H18         9.0492   -4.3761    4.8739 H         1 <0>         0.0985
     59 H19         9.2048   -3.3957    3.3964 H         1 <0>         0.0881
     60 H20        11.1218   -1.9412    3.0670 H         1 <0>         0.1318
     61 H21        14.4962   -2.4987    5.6212 H         1 <0>         0.1491
     62 H22        10.7515   -4.2980    6.6015 H         1 <0>         0.1345
     63 H23         7.9071   -2.8953    7.0709 H         1 <0>         0.4149
     64 H24         8.9840   -3.8053    9.4811 H         1 <0>         0.1153
     65 H25        10.3851   -3.9226    8.3707 H         1 <0>         0.1047
     66 H26        11.7207   -1.1574    8.4509 H         1 <0>         0.0900
     67 H27        10.7305   -0.1753    9.5712 H         1 <0>         0.0898
     68 H28        12.2923   -0.4683   11.5029 H         1 <0>         0.1150
     69 H29        12.1820   -2.0461   12.3194 H         1 <0>         0.1042
     70 H30        14.3495   -0.0937    9.8225 H         1 <0>         0.1462
     71 H31        16.6671   -1.4327    9.4601 H         1 <0>         0.1489
     72 H32        16.4187   -3.7403   10.6765 H         1 <0>         0.2033
     73 H33         7.1137   -4.5199    4.5798 H         1 <0>         0.3909
     74 H34         8.1975   -0.7339    2.7385 H         1 <0>         0.4335
@<TRIPOS>BOND
     1    1    6 ar
     2    1    2 ar
     3    1   46 1
     4    2    3 ar
     5    2   47 1
     6    3    4 ar
     7    3   48 1
     8    4    5 ar
     9    4    7 1
    10    5    6 ar
    11    5   49 1
    12    6   50 1
    13    7    8 1
    14    7   51 1
    15    7   52 1
    16    8    9 1
    17    9   10 1
    18    9   15 1
    19    9   11 1
    20   11   12 1
    21   11   53 1
    22   11   54 1
    23   12   13 1
    24   12   14 1
    25   12   16 1
    26   14   15 1
    27   14   55 1
    28   14   74 1
    29   15   56 1
    30   15   57 1
    31   16   17 1
    32   16   18 1
    33   16   45 1
    34   18   19 1
    35   18   20 1
    36   18   29 1
    37   20   21 1
    38   20   58 1
    39   20   59 1
    40   21   26 ar
    41   21   22 ar
    42   22   23 ar
    43   22   60 1
    44   23   24 ar
    45   23   28 1
    46   24   25 ar
    47   24   61 1
    48   25   26 ar
    49   25   27 1
    50   26   62 1
    51   29   30 am
    52   29   63 1
    53   30   31 2
    54   30   32 1
    55   32   33 1
    56   32   38 1
    57   32   34 1
    58   34   35 1
    59   34   64 1
    60   34   65 1
    61   35   36 2
    62   35   37 am
    63   37   38 1
    64   37   39 1
    65   38   66 1
    66   38   67 1
    67   39   40 1
    68   39   68 1
    69   39   69 1
    70   40   44 1
    71   40   41 2
    72   41   42 1
    73   41   70 1
    74   42   43 2
    75   42   71 1
    76   43   44 1
    77   43   72 1
    78   45   73 1
@<TRIPOS>MOLECULE
CHEMBL202057
   78    81     0     0     0
SMALL
USER_CHARGES

@<TRIPOS>ATOM
      1 C1         -1.2855    0.4983   -0.4839 C.3       1 <0>         0.0738
      2 N1          0.0021   -0.0041    0.0020 N.pl3     1 <0>        -0.9551
      3 C2          0.0441   -0.8879    1.0838 C.ar      1 <0>         0.1502
      4 C3          0.7604   -0.5529    2.2233 C.ar      1 <0>        -0.0551
      5 C4          0.8038   -1.4350    3.3073 C.ar      1 <0>        -0.1458
      6 C5          0.1249   -2.6532    3.2403 C.ar      1 <0>        -0.0500
      7 C6         -0.5926   -2.9842    2.0938 C.ar      1 <0>        -0.1298
      8 C7         -0.6356   -2.0958    1.0174 C.ar      1 <0>        -0.0309
      9 C8         -1.3132   -4.2734    2.0184 C.2       1 <0>         0.5668
     10 O1         -1.9394   -4.5619    1.0174 O.2       1 <0>        -0.4977
     11 N2         -1.2756   -5.1284    3.0596 N.am      1 <0>        -0.7241
     12 C9         -1.9895   -6.4055    2.9848 C.3       1 <0>         0.1282
     13 H1         -2.9109   -6.2740    2.4175 H         1 <0>         0.1113
     14 C10        -1.1062   -7.4435    2.2897 C.3       1 <0>        -0.1022
     15 C11        -0.8770   -7.0306    0.8586 C.ar      1 <0>        -0.0806
     16 C12        -1.7513   -7.4449   -0.1288 C.ar      1 <0>        -0.1069
     17 C13        -1.5410   -7.0661   -1.4415 C.ar      1 <0>        -0.1107
     18 C14        -0.4568   -6.2726   -1.7667 C.ar      1 <0>        -0.1098
     19 C15         0.4169   -5.8576   -0.7792 C.ar      1 <0>        -0.1090
     20 C16         0.2043   -6.2329    0.5342 C.ar      1 <0>        -0.1071
     21 C17        -2.3249   -6.8857    4.3983 C.3       1 <0>         0.0743
     22 H2         -2.8790   -6.1082    4.9242 H         1 <0>         0.1337
     23 C18        -3.1776   -8.1535    4.3172 C.3       1 <0>        -0.0414
     24 N3         -3.5996   -8.5469    5.6682 N.4       1 <0>        -0.4744
     25 C19        -4.4183   -9.7642    5.5903 C.3       1 <0>        -0.0864
     26 C20        -5.8779   -9.6637    6.0379 C.3       1 <0>        -0.1539
     27 C21        -4.8602  -10.4038    6.9081 C.3       1 <0>        -0.1530
     28 O2         -1.1155   -7.1694    5.1045 O.3       1 <0>        -0.5496
     29 C22         1.5643   -1.0801    4.5168 C.2       1 <0>         0.3987
     30 O3          2.1538   -0.0221    4.5736 O.2       1 <0>        -0.4341
     31 C23         1.6102   -2.0319    5.6843 C.3       1 <0>        -0.1268
     32 C24         0.3821   -1.8122    6.5699 C.3       1 <0>        -0.1091
     33 C25         0.4286   -2.7785    7.7553 C.3       1 <0>        -0.1135
     34 C26         1.6978   -2.5242    8.5710 C.3       1 <0>        -0.1252
     35 C27         2.9259   -2.7438    7.6854 C.3       1 <0>        -0.1182
     36 C28         2.8793   -1.7776    6.5001 C.3       1 <0>        -0.1110
     37 S1          1.4077    0.4754   -0.7306 S.o2      1 <0>         2.5975
     38 O4          2.3614   -0.5134   -0.3674 O.2       1 <0>        -0.9387
     39 O5          1.0562    0.6771   -2.0926 O.2       1 <0>        -0.9386
     40 C29         1.8227    2.0599    0.0489 C.3       1 <0>        -0.6719
     41 H3         -1.5388    1.4183    0.0429 H         1 <0>         0.0674
     42 H4         -1.2172    0.6988   -1.5531 H         1 <0>         0.0959
     43 H5         -2.0585   -0.2486   -0.3030 H         1 <0>         0.0827
     44 H6          1.2852    0.3897    2.2731 H         1 <0>         0.1399
     45 H7          0.1565   -3.3372    4.0755 H         1 <0>         0.1374
     46 H8         -1.1959   -2.3509    0.1300 H         1 <0>         0.1493
     47 H9         -0.7759   -4.8981    3.8584 H         1 <0>         0.4055
     48 H10        -0.1488   -7.5104    2.8064 H         1 <0>         0.0829
     49 H11        -1.6002   -8.4149    2.3129 H         1 <0>         0.0799
     50 H12        -2.5984   -8.0648    0.1253 H         1 <0>         0.1118
     51 H13        -2.2237   -7.3903   -2.2130 H         1 <0>         0.1198
     52 H14        -0.2922   -5.9773   -2.7924 H         1 <0>         0.1209
     53 H15         1.2642   -5.2380   -1.0334 H         1 <0>         0.1197
     54 H16         0.8848   -5.9055    1.3062 H         1 <0>         0.1111
     55 H17        -4.0575   -7.9609    3.7033 H         1 <0>         0.1477
     56 H18        -2.5920   -8.9573    3.8710 H         1 <0>         0.1418
     57 H19        -2.7851   -8.7252    6.2364 H         1 <0>         0.4333
     58 H20        -4.1914  -10.4310    4.7585 H         1 <0>         0.1782
     59 H21        -6.2307   -8.6943    6.3900 H         1 <0>         0.1218
     60 H22        -6.6116  -10.2643    5.5003 H         1 <0>         0.1344
     61 H23        -4.9244  -11.4913    6.9431 H         1 <0>         0.1349
     62 H24        -4.5434   -9.9214    7.8328 H         1 <0>         0.1221
     63 H25        -0.5707   -7.8538    4.6924 H         1 <0>         0.3928
     64 H26         1.6142   -3.0580    5.3166 H         1 <0>         0.0960
     65 H27         0.3781   -0.7861    6.9376 H         1 <0>         0.0725
     66 H28        -0.5221   -1.9934    5.9887 H         1 <0>         0.0663
     67 H29        -0.4463   -2.6220    8.3862 H         1 <0>         0.0659
     68 H30         0.4326   -3.8046    7.3876 H         1 <0>         0.0625
     69 H31         1.6938   -1.4980    8.9387 H         1 <0>         0.0654
     70 H32         1.7309   -3.2125    9.4155 H         1 <0>         0.0644
     71 H33         3.8300   -2.5626    8.2666 H         1 <0>         0.0686
     72 H34         2.9299   -3.7700    7.3178 H         1 <0>         0.0622
     73 H35         3.7543   -1.9341    5.8691 H         1 <0>         0.0678
     74 H36         2.8754   -0.7514    6.8677 H         1 <0>         0.0759
     75 H37         1.9563    1.9135    1.1208 H         1 <0>         0.1299
     76 H38         2.7459    2.4464   -0.3828 H         1 <0>         0.1377
     77 H39         1.0154    2.7718   -0.1228 H         1 <0>         0.1338
     78 H40        -4.1417   -7.8029    6.0813 H         1 <0>         0.4265
@<TRIPOS>BOND
     1    1    2 1
     2    1   41 1
     3    1   42 1
     4    1   43 1
     5    2    3 1
     6    2   37 1
     7    3    8 ar
     8    3    4 ar
     9    4    5 ar
    10    4   44 1
    11    5    6 ar
    12    5   29 1
    13    6    7 ar
    14    6   45 1
    15    7    8 ar
    16    7    9 1
    17    8   46 1
    18    9   10 2
    19    9   11 am
    20   11   12 1
    21   11   47 1
    22   12   13 1
    23   12   14 1
    24   12   21 1
    25   14   15 1
    26   14   48 1
    27   14   49 1
    28   15   20 ar
    29   15   16 ar
    30   16   17 ar
    31   16   50 1
    32   17   18 ar
    33   17   51 1
    34   18   19 ar
    35   18   52 1
    36   19   20 ar
    37   19   53 1
    38   20   54 1
    39   21   22 1
    40   21   23 1
    41   21   28 1
    42   23   24 1
    43   23   55 1
    44   23   56 1
    45   24   25 1
    46   24   57 1
    47   24   78 1
    48   25   27 1
    49   25   26 1
    50   25   58 1
    51   26   27 1
    52   26   59 1
    53   26   60 1
    54   27   61 1
    55   27   62 1
    56   28   63 1
    57   29   30 2
    58   29   31 1
    59   31   36 1
    60   31   32 1
    61   31   64 1
    62   32   33 1
    63   32   65 1
    64   32   66 1
    65   33   34 1
    66   33   67 1
    67   33   68 1
    68   34   35 1
    69   34   69 1
    70   34   70 1
    71   35   36 1
    72   35   71 1
    73   35   72 1
    74   36   73 1
    75   36   74 1
    76   37   38 2
    77   37   39 2
    78   37   40 1
    79   40   75 1
    80   40   76 1
    81   40   77 1
@<TRIPOS>MOLECULE
CHEMBL248876
   71    73     0     0     0
SMALL
USER_CHARGES

@<TRIPOS>ATOM
      1 C1         -0.0187    1.5258    0.0104 C.3       1 <0>        -0.1543
      2 C2          0.0021   -0.0041    0.0020 C.3       1 <0>        -0.1451
      3 C3          0.7421   -0.5109    1.2415 C.3       1 <0>         0.0945
      4 N1          0.7619   -1.9757    1.2335 N.pl3     1 <0>        -0.9411
      5 C4          1.7567   -2.6577    0.5256 C.ar      1 <0>         0.1927
      6 C5          1.5990   -3.9040    0.1688 C.ar      1 <0>        -0.1347
      7 C6          2.5885   -4.5915   -0.5082 C.ar      1 <0>        -0.0654
      8 C7          3.7697   -3.9476   -0.7768 C.ar      1 <0>        -0.1120
      9 C8          3.9620   -2.6421   -0.4402 C.ar      1 <0>        -0.1058
     10 C9          2.9731   -2.0130    0.2904 C.ar      1 <0>        -0.0839
     11 C10         5.2652   -1.9977   -0.6423 C.2       1 <0>         0.5741
     12 O1          5.3463   -0.7927   -0.6353 O.2       1 <0>        -0.4961
     13 N2          6.3000   -2.8076   -0.9354 N.am      1 <0>        -0.7318
     14 C11         7.6167   -2.0839   -1.1942 C.3       1 <0>         0.2575
     15 H1          7.4962   -1.3201   -1.9272 H         1 <0>         0.1237
     16 C12         8.6248   -3.2279   -1.5865 C.3       1 <0>        -0.1102
     17 C13         8.4718   -3.4569   -3.1169 C.3       1 <0>        -0.0982
     18 C14         8.3131   -4.8544   -3.3533 C.ar      1 <0>        -0.0749
     19 C15         9.4771   -5.6574   -3.6771 C.ar      1 <0>        -0.0907
     20 C16         9.2571   -7.0750   -3.9007 C.ar      1 <0>        -0.1121
     21 C17         8.0492   -7.6389   -3.8365 C.ar      1 <0>        -0.0980
     22 C18         6.9361   -6.8176   -3.5277 C.ar      1 <0>        -0.1302
     23 C19         7.0969   -5.4789   -3.3266 C.ar      1 <0>        -0.1171
     24 C20         5.5766   -7.4344   -3.4309 C.3       1 <0>        -0.1269
     25 C21         5.2452   -8.0257   -2.1205 C.3       1 <0>         0.1115
     26 C22         3.7217   -7.7844   -1.7908 C.3       1 <0>         0.0370
     27 O2          3.4273   -6.3641   -1.8193 O.3       1 <0>        -0.3562
     28 C23         2.3758   -6.0259   -1.0269 C.3       1 <0>         0.0903
     29 C24         5.5658   -9.4531   -1.9555 C.3       1 <0>        -0.1994
     30 N3          6.0485   -7.3085   -1.0480 N.4       1 <0>        -0.6646
     31 C25         8.0941   -1.4763    0.0642 C.1       1 <0>        -0.2271
     32 C26         8.4736   -0.9933    1.0646 C.1       1 <0>        -0.1517
     33 S1         -0.3936   -2.8241    2.0626 S.o2      1 <0>         2.5953
     34 O3          0.2507   -4.0294    2.4516 O.2       1 <0>        -0.9426
     35 O4         -0.8797   -1.9144    3.0401 O.2       1 <0>        -0.9329
     36 C27        -1.6847   -3.1732    0.8371 C.3       1 <0>        -0.6734
     37 H2          1.0039    1.9031    0.0027 H         1 <0>         0.0613
     38 H3         -0.5459    1.8868   -0.8726 H         1 <0>         0.0637
     39 H4         -0.5289    1.8773    0.9072 H         1 <0>         0.0624
     40 H5         -1.0205   -0.3814    0.0098 H         1 <0>         0.0635
     41 H6          0.5123   -0.3556   -0.8948 H         1 <0>         0.0716
     42 H7          1.7647   -0.1336    1.2338 H         1 <0>         0.0965
     43 H8          0.2319   -0.1594    2.1383 H         1 <0>         0.1114
     44 H9          0.6358   -4.3666    0.3909 H         1 <0>         0.1268
     45 H10         4.5173   -4.4916   -1.3125 H         1 <0>         0.1168
     46 H11         3.1050   -1.0011    0.5989 H         1 <0>         0.1420
     47 H12         6.2960   -3.7516   -0.9224 H         1 <0>         0.3985
     48 H13         9.6348   -2.8889   -1.3872 H         1 <0>         0.0878
     49 H14         8.4705   -4.0893   -1.0307 H         1 <0>         0.0767
     50 H15         7.6308   -2.9428   -3.4880 H         1 <0>         0.0862
     51 H16         9.3506   -3.0752   -3.6386 H         1 <0>         0.0912
     52 H17        10.3928   -5.1994   -3.6893 H         1 <0>         0.1332
     53 H18        10.1797   -7.6178   -4.0922 H         1 <0>         0.1293
     54 H19         7.9091   -8.6581   -3.9596 H         1 <0>         0.1272
     55 H20         6.2088   -4.9120   -3.0675 H         1 <0>         0.1203
     56 H21         4.8081   -6.7015   -3.7193 H         1 <0>         0.1191
     57 H22         5.4967   -8.3043   -4.2136 H         1 <0>         0.1232
     58 H23         3.2102   -8.3528   -2.5028 H         1 <0>         0.1076
     59 H24         3.5507   -8.2242   -0.7868 H         1 <0>         0.0936
     60 H25         2.2829   -6.7087   -0.1175 H         1 <0>         0.0843
     61 H26         1.3955   -6.0696   -1.6095 H         1 <0>         0.0870
     62 H27         6.6367   -9.6031   -2.0924 H         1 <0>         0.0957
     63 H28         5.2786   -9.7767   -0.9550 H         1 <0>         0.0925
     64 H29         5.0195  -10.0363   -2.6968 H         1 <0>         0.1165
     65 H30         5.8134   -6.3273   -1.0515 H         1 <0>         0.4269
     66 H31         5.8316   -7.7031   -0.1450 H         1 <0>         0.4296
     67 H32         8.8130   -0.5612    1.9594 H         1 <0>         0.2202
     68 H33        -1.3005   -3.8713    0.0934 H         1 <0>         0.1297
     69 H34        -2.5492   -3.6122    1.3351 H         1 <0>         0.1393
     70 H35        -1.9802   -2.2458    0.3465 H         1 <0>         0.1359
     71 H36         7.0338   -7.4189   -1.2354 H         1 <0>         0.4322
@<TRIPOS>BOND
     1    1    2 1
     2    1   37 1
     3    1   38 1
     4    1   39 1
     5    2    3 1
     6    2   40 1
     7    2   41 1
     8    3    4 1
     9    3   42 1
    10    3   43 1
    11    4    5 1
    12    4   33 1
    13    5   10 ar
    14    5    6 ar
    15    6    7 ar
    16    6   44 1
    17    7   28 1
    18    7    8 ar
    19    8    9 ar
    20    8   45 1
    21    9   10 ar
    22    9   11 1
    23   10   46 1
    24   11   12 2
    25   11   13 am
    26   13   14 1
    27   13   47 1
    28   14   15 1
    29   14   16 1
    30   14   31 1
    31   16   17 1
    32   16   48 1
    33   16   49 1
    34   17   18 1
    35   17   50 1
    36   17   51 1
    37   18   23 ar
    38   18   19 ar
    39   19   20 ar
    40   19   52 1
    41   20   21 ar
    42   20   53 1
    43   21   22 ar
    44   21   54 1
    45   22   23 ar
    46   22   24 1
    47   23   55 1
    48   24   25 1
    49   24   56 1
    50   24   57 1
    51   25   26 1
    52   25   29 1
    53   25   30 1
    54   26   27 1
    55   26   58 1
    56   26   59 1
    57   27   28 1
    58   28   60 1
    59   28   61 1
    60   29   62 1
    61   29   63 1
    62   29   64 1
    63   30   65 1
    64   30   66 1
    65   30   71 1
    66   31   32 3
    67   32   67 1
    68   33   34 2
    69   33   35 2
    70   33   36 1
    71   36   68 1
    72   36   69 1
    73   36   70 1
@<TRIPOS>MOLECULE
CHEMBL507330
   86    88     0     0     0
SMALL
USER_CHARGES

@<TRIPOS>ATOM
      1 C1          3.5822   -5.9726    0.1243 C.3       1 <0>        -0.1533
      2 C2          2.8383   -5.5532   -1.1452 C.3       1 <0>        -0.1474
      3 C3          1.8193   -4.4644   -0.8030 C.3       1 <0>         0.0959
      4 N1          1.2120   -3.9588   -2.0366 N.am      1 <0>        -0.6064
      5 C4          0.1359   -4.7120   -2.6854 C.3       1 <0>         0.1136
      6 C5         -1.2144   -4.2497   -2.1340 C.3       1 <0>        -0.1397
      7 C6         -2.3382   -5.0363   -2.8116 C.3       1 <0>        -0.1495
      8 C7          1.6433   -2.8008   -2.5746 C.2       1 <0>         0.5613
      9 O1          1.1968   -2.4220   -3.6397 O.2       1 <0>        -0.5244
     10 C8          2.6596   -1.9911   -1.8691 C.ar      1 <0>        -0.1293
     11 C9          3.8205   -2.5956   -1.3804 C.ar      1 <0>        -0.0758
     12 C10         4.7704   -1.8410   -0.7214 C.ar      1 <0>        -0.0938
     13 C11         4.5805   -0.4852   -0.5406 C.ar      1 <0>        -0.0675
     14 C12         3.4243    0.1317   -1.0238 C.ar      1 <0>        -0.1334
     15 C13         2.4645   -0.6229   -1.6952 C.ar      1 <0>        -0.0152
     16 C14         3.2221    1.5833   -0.8285 C.2       1 <0>         0.5637
     17 O2          2.1738    2.1011   -1.1610 O.2       1 <0>        -0.5171
     18 N2          4.2001    2.3324   -0.2818 N.am      1 <0>        -0.7202
     19 C15         3.9532    3.7411    0.0356 C.3       1 <0>         0.1231
     20 H1          3.1680    4.1277   -0.6142 H         1 <0>         0.1253
     21 C16         3.5139    3.8655    1.4959 C.3       1 <0>        -0.1010
     22 C17         2.1746    3.1985    1.6761 C.ar      1 <0>        -0.0142
     23 C18         1.0142    3.8888    1.3811 C.ar      1 <0>        -0.1457
     24 C19        -0.2170    3.2771    1.5468 C.ar      1 <0>         0.1385
     25 C20        -0.2852    1.9736    2.0077 C.ar      1 <0>        -0.1950
     26 C21         0.8777    1.2832    2.3025 C.ar      1 <0>         0.1337
     27 C22         2.1080    1.8952    2.1311 C.ar      1 <0>        -0.1605
     28 F1          0.8126    0.0110    2.7524 F         1 <0>        -0.1324
     29 F2         -1.3513    3.9523    1.2591 F         1 <0>        -0.1308
     30 C23         5.2366    4.5453   -0.1812 C.3       1 <0>         0.1202
     31 H2          5.5982    4.3855   -1.1970 H         1 <0>         0.1079
     32 C24         4.9480    6.0330    0.0293 C.3       1 <0>         0.0429
     33 H3          4.5864    6.1912    1.0454 H         1 <0>         0.1191
     34 C25         6.2106    6.8204   -0.1790 C.2       1 <0>         0.4821
     35 O3          7.2453    6.3934    0.2879 O.2       1 <0>        -0.5120
     36 N3          6.2413    7.9719   -0.8581 N.am      1 <0>        -0.6062
     37 C26         5.0599    8.5525   -1.4898 C.3       1 <0>         0.0713
     38 C27         3.7917    7.9362   -0.8964 C.3       1 <0>         0.0423
     39 N4          3.9223    6.4708   -0.9269 N.3       1 <0>        -0.6671
     40 C28         7.5171    8.6829   -0.9729 C.3       1 <0>         0.1102
     41 C29         7.5928    9.7712    0.0999 C.3       1 <0>        -0.1091
     42 C30         7.6247    9.1210    1.4845 C.3       1 <0>        -0.1375
     43 C31         8.8623   10.6004   -0.1036 C.3       1 <0>        -0.1463
     44 O4          6.2307    4.1163    0.7514 O.3       1 <0>        -0.5304
     45 C32         6.0199   -2.5000   -0.1965 C.3       1 <0>        -0.1172
     46 H4          4.1693   -5.1327    0.4956 H         1 <0>         0.0577
     47 H5          2.8620   -6.2766    0.8839 H         1 <0>         0.0596
     48 H6          4.2455   -6.8074   -0.1023 H         1 <0>         0.0612
     49 H7          3.5514   -5.1674   -1.8736 H         1 <0>         0.0683
     50 H8          2.3209   -6.4159   -1.5649 H         1 <0>         0.0706
     51 H9          1.0438   -4.8815   -0.1606 H         1 <0>         0.0805
     52 H10         2.3208   -3.6477   -0.2837 H         1 <0>         0.0904
     53 H11         0.1680   -4.5380   -3.7609 H         1 <0>         0.0868
     54 H12         0.2651   -5.7756   -2.4854 H         1 <0>         0.0791
     55 H13        -1.2464   -4.4237   -1.0585 H         1 <0>         0.0628
     56 H14        -1.3436   -3.1860   -2.3340 H         1 <0>         0.0659
     57 H15        -2.3062   -4.8623   -3.8871 H         1 <0>         0.0575
     58 H16        -2.2090   -6.0999   -2.6116 H         1 <0>         0.0554
     59 H17        -3.3002   -4.7069   -2.4188 H         1 <0>         0.0582
     60 H18         3.9749   -3.6556   -1.5181 H         1 <0>         0.1426
     61 H19         5.3275    0.0994   -0.0242 H         1 <0>         0.1314
     62 H20         1.5709   -0.1499   -2.0749 H         1 <0>         0.1419
     63 H21         5.0675    1.9388   -0.0985 H         1 <0>         0.4041
     64 H22         4.2497    3.3828    2.1390 H         1 <0>         0.0845
     65 H23         3.4338    4.9193    1.7627 H         1 <0>         0.0948
     66 H24         1.0676    4.9057    1.0215 H         1 <0>         0.1430
     67 H25        -1.2451    1.4959    2.1375 H         1 <0>         0.1452
     68 H26         3.0156    1.3551    2.3568 H         1 <0>         0.1356
     69 H27         5.0519    9.6293   -1.3209 H         1 <0>         0.0829
     70 H28         5.0898    8.3566   -2.5616 H         1 <0>         0.0690
     71 H29         3.6693    8.2722    0.1333 H         1 <0>         0.0857
     72 H30         2.9272    8.2389   -1.4872 H         1 <0>         0.1052
     73 H31         4.1334    6.1448   -1.8581 H         1 <0>         0.3514
     74 H32         8.3385    7.9797   -0.8357 H         1 <0>         0.0923
     75 H33         7.5909    9.1397   -1.9598 H         1 <0>         0.0732
     76 H34         6.7195   10.4188    0.0227 H         1 <0>         0.0679
     77 H35         7.6431    9.8969    2.2499 H         1 <0>         0.0503
     78 H36         6.7372    8.5021    1.6159 H         1 <0>         0.0470
     79 H37         8.5166    8.5009    1.5743 H         1 <0>         0.0596
     80 H38         8.8396   11.0636   -1.0900 H         1 <0>         0.0555
     81 H39         8.9163   11.3757    0.6607 H         1 <0>         0.0590
     82 H40         9.7356    9.9527   -0.0264 H         1 <0>         0.0580
     83 H41         5.9762    4.2294    1.6774 H         1 <0>         0.3746
     84 H42         6.7940   -2.4739   -0.9635 H         1 <0>         0.0759
     85 H43         6.3673   -1.9672    0.6886 H         1 <0>         0.0721
     86 H44         5.8022   -3.5356    0.0648 H         1 <0>         0.0708
@<TRIPOS>BOND
     1    1    2 1
     2    1   46 1
     3    1   47 1
     4    1   48 1
     5    2    3 1
     6    2   49 1
     7    2   50 1
     8    3    4 1
     9    3   51 1
    10    3   52 1
    11    4    5 1
    12    4    8 am
    13    5    6 1
    14    5   53 1
    15    5   54 1
    16    6    7 1
    17    6   55 1
    18    6   56 1
    19    7   57 1
    20    7   58 1
    21    7   59 1
    22    8    9 2
    23    8   10 1
    24   10   15 ar
    25   10   11 ar
    26   11   12 ar
    27   11   60 1
    28   12   13 ar
    29   12   45 1
    30   13   14 ar
    31   13   61 1
    32   14   15 ar
    33   14   16 1
    34   15   62 1
    35   16   17 2
    36   16   18 am
    37   18   19 1
    38   18   63 1
    39   19   20 1
    40   19   21 1
    41   19   30 1
    42   21   22 1
    43   21   64 1
    44   21   65 1
    45   22   27 ar
    46   22   23 ar
    47   23   24 ar
    48   23   66 1
    49   24   25 ar
    50   24   29 1
    51   25   26 ar
    52   25   67 1
    53   26   27 ar
    54   26   28 1
    55   27   68 1
    56   30   31 1
    57   30   32 1
    58   30   44 1
    59   32   33 1
    60   32   39 1
    61   32   34 1
    62   34   35 2
    63   34   36 am
    64   36   37 1
    65   36   40 1
    66   37   38 1
    67   37   69 1
    68   37   70 1
    69   38   39 1
    70   38   71 1
    71   38   72 1
    72   39   73 1
    73   40   41 1
    74   40   74 1
    75   40   75 1
    76   41   42 1
    77   41   43 1
    78   41   76 1
    79   42   77 1
    80   42   78 1
    81   42   79 1
    82   43   80 1
    83   43   81 1
    84   43   82 1
    85   44   83 1
    86   45   84 1
    87   45   85 1
    88   45   86 1
@<TRIPOS>MOLECULE
CHEMBL507330__1
   87    89     0     0     0
SMALL
USER_CHARGES

@<TRIPOS>ATOM
      1 C1         -4.3194   -5.9443    3.1795 C.3       1 <0>        -0.1531
      2 C2         -2.8047   -5.7596    3.0672 C.3       1 <0>        -0.1465
      3 C3         -2.4965   -4.7159    1.9918 C.3       1 <0>         0.0960
      4 N1         -1.0585   -4.4361    1.9806 N.am      1 <0>        -0.6037
      5 C4         -0.1371   -5.3631    1.3188 C.3       1 <0>         0.1121
      6 C5          0.0319   -4.9552   -0.1461 C.3       1 <0>        -0.1388
      7 C6          0.9942   -5.9233   -0.8373 C.3       1 <0>        -0.1507
      8 C7         -0.5833   -3.3260    2.5792 C.2       1 <0>         0.5576
      9 O1          0.6157   -3.1387    2.6482 O.2       1 <0>        -0.5231
     10 C8         -1.5204   -2.3361    3.1519 C.ar      1 <0>        -0.1200
     11 C9         -2.5257   -2.7498    4.0294 C.ar      1 <0>        -0.0685
     12 C10        -3.4016   -1.8267    4.5650 C.ar      1 <0>        -0.0911
     13 C11        -3.2906   -0.4896    4.2379 C.ar      1 <0>        -0.0752
     14 C12        -2.2904   -0.0626    3.3615 C.ar      1 <0>        -0.1393
     15 C13        -1.3993   -0.9881    2.8222 C.ar      1 <0>        -0.0154
     16 C14        -2.1737    1.3692    3.0116 C.2       1 <0>         0.5653
     17 O2         -1.3683    1.7265    2.1742 O.2       1 <0>        -0.4909
     18 N2         -2.9603    2.2782    3.6211 N.am      1 <0>        -0.7360
     19 C15        -2.9135    3.6826    3.2067 C.3       1 <0>         0.1066
     20 H1         -1.9361    3.9023    2.7773 H         1 <0>         0.1496
     21 C16        -4.0000    3.9424    2.1613 C.3       1 <0>        -0.0882
     22 C17        -3.6892    3.1630    0.9095 C.ar      1 <0>        -0.0250
     23 C18        -2.8140    3.6804   -0.0266 C.ar      1 <0>        -0.1474
     24 C19        -2.5280    2.9654   -1.1775 C.ar      1 <0>         0.1432
     25 C20        -3.1188    1.7318   -1.3899 C.ar      1 <0>        -0.1902
     26 C21        -3.9949    1.2144   -0.4515 C.ar      1 <0>         0.1371
     27 C22        -4.2754    1.9289    0.7011 C.ar      1 <0>        -0.1608
     28 F1         -4.5723    0.0104   -0.6575 F         1 <0>        -0.1292
     29 F2         -1.6731    3.4718   -2.0928 F         1 <0>        -0.1272
     30 C23        -3.1501    4.5811    4.4223 C.3       1 <0>         0.0955
     31 H2         -4.1508    4.4035    4.8161 H         1 <0>         0.1422
     32 C24        -2.1133    4.2625    5.5015 C.3       1 <0>        -0.0273
     33 H3         -2.1119    3.1900    5.6958 H         1 <0>         0.1755
     34 C25        -0.7525    4.6841    5.0247 C.2       1 <0>         0.4943
     35 O3         -0.4443    4.4602    3.8732 O.2       1 <0>        -0.4620
     36 N3          0.1330    5.2969    5.8185 N.am      1 <0>        -0.5995
     37 C26        -0.1577    5.6327    7.2102 C.3       1 <0>         0.0788
     38 C27        -1.3601    4.8238    7.7006 C.3       1 <0>        -0.0207
     39 N4         -2.4586    4.9801    6.7350 N.4       1 <0>        -0.5011
     40 C28         1.4465    5.6446    5.2706 C.3       1 <0>         0.1086
     41 C29         1.3904    7.0476    4.6629 C.3       1 <0>        -0.1083
     42 C30         2.7900    7.4604    4.2029 C.3       1 <0>        -0.1515
     43 C31         0.4393    7.0466    3.4644 C.3       1 <0>        -0.1404
     44 O4         -3.0274    5.9507    4.0334 O.3       1 <0>        -0.5380
     45 C32        -4.4838   -2.2804    5.5105 C.3       1 <0>        -0.1184
     46 H4         -4.7282   -6.1966    2.2011 H         1 <0>         0.0610
     47 H5         -4.5362   -6.7487    3.8823 H         1 <0>         0.0628
     48 H6         -4.7728   -5.0190    3.5352 H         1 <0>         0.0554
     49 H7         -2.4078   -5.4228    4.0248 H         1 <0>         0.0660
     50 H8         -2.3422   -6.7085    2.7957 H         1 <0>         0.0727
     51 H9         -2.8000   -5.0979    1.0171 H         1 <0>         0.0828
     52 H10        -3.0435   -3.7983    2.2087 H         1 <0>         0.0871
     53 H11         0.8310   -5.3319    1.8187 H         1 <0>         0.0881
     54 H12        -0.5401   -6.3745    1.3701 H         1 <0>         0.0817
     55 H13        -0.9362   -4.9864   -0.6460 H         1 <0>         0.0633
     56 H14         0.4349   -3.9437   -0.1974 H         1 <0>         0.0647
     57 H15         1.9623   -5.8921   -0.3374 H         1 <0>         0.0580
     58 H16         0.5912   -6.9347   -0.7859 H         1 <0>         0.0570
     59 H17         1.1147   -5.6327   -1.8809 H         1 <0>         0.0597
     60 H18        -2.6182   -3.7940    4.2890 H         1 <0>         0.1434
     61 H19        -3.9790    0.2273    4.6603 H         1 <0>         0.1260
     62 H20        -0.6211   -0.6625    2.1479 H         1 <0>         0.1425
     63 H21        -3.5574    2.0025    4.3341 H         1 <0>         0.3951
     64 H22        -4.9661    3.6270    2.5553 H         1 <0>         0.0858
     65 H23        -4.0327    5.0066    1.9280 H         1 <0>         0.1018
     66 H24        -2.3531    4.6430    0.1393 H         1 <0>         0.1389
     67 H25        -2.8967    1.1736   -2.2874 H         1 <0>         0.1489
     68 H26        -4.9555    1.5234    1.4355 H         1 <0>         0.1353
     69 H27         0.7104    5.4013    7.8274 H         1 <0>         0.1294
     70 H28        -0.3816    6.6967    7.2868 H         1 <0>         0.1024
     71 H29        -1.0859    3.7717    7.7773 H         1 <0>         0.1428
     72 H30        -1.6755    5.1932    8.6764 H         1 <0>         0.1620
     73 H31        -2.5940    5.9588    6.5300 H         1 <0>         0.4381
     74 H32         2.1898    5.6233    6.0676 H         1 <0>         0.0928
     75 H33         1.7203    4.9251    4.4990 H         1 <0>         0.1013
     76 H34         1.0310    7.7537    5.4114 H         1 <0>         0.0721
     77 H35         3.1494    6.7543    3.4543 H         1 <0>         0.0628
     78 H36         2.7501    8.4599    3.7699 H         1 <0>         0.0662
     79 H37         3.4676    7.4611    5.0566 H         1 <0>         0.0601
     80 H38         0.7987    6.3405    2.7159 H         1 <0>         0.0698
     81 H39        -0.5578    6.7525    3.7922 H         1 <0>         0.0331
     82 H40         0.3993    8.0461    3.0314 H         1 <0>         0.0611
     83 H41        -2.1602    6.1810    3.6728 H         1 <0>         0.3920
     84 H42        -4.1094   -2.2482    6.5336 H         1 <0>         0.0757
     85 H43        -5.3466   -1.6206    5.4185 H         1 <0>         0.0714
     86 H44        -4.7783   -3.3003    5.2632 H         1 <0>         0.0747
     87 H45        -3.3057    4.5944    7.1245 H         1 <0>         0.4391
@<TRIPOS>BOND
     1    1    2 1
     2    1   46 1
     3    1   47 1
     4    1   48 1
     5    2    3 1
     6    2   49 1
     7    2   50 1
     8    3    4 1
     9    3   51 1
    10    3   52 1
    11    4    5 1
    12    4    8 am
    13    5    6 1
    14    5   53 1
    15    5   54 1
    16    6    7 1
    17    6   55 1
    18    6   56 1
    19    7   57 1
    20    7   58 1
    21    7   59 1
    22    8    9 2
    23    8   10 1
    24   10   15 ar
    25   10   11 ar
    26   11   12 ar
    27   11   60 1
    28   12   13 ar
    29   12   45 1
    30   13   14 ar
    31   13   61 1
    32   14   15 ar
    33   14   16 1
    34   15   62 1
    35   16   17 2
    36   16   18 am
    37   18   19 1
    38   18   63 1
    39   19   20 1
    40   19   21 1
    41   19   30 1
    42   21   22 1
    43   21   64 1
    44   21   65 1
    45   22   27 ar
    46   22   23 ar
    47   23   24 ar
    48   23   66 1
    49   24   25 ar
    50   24   29 1
    51   25   26 ar
    52   25   67 1
    53   26   27 ar
    54   26   28 1
    55   27   68 1
    56   30   31 1
    57   30   32 1
    58   30   44 1
    59   32   33 1
    60   32   39 1
    61   32   34 1
    62   34   35 2
    63   34   36 am
    64   36   37 1
    65   36   40 1
    66   37   38 1
    67   37   69 1
    68   37   70 1
    69   38   39 1
    70   38   71 1
    71   38   72 1
    72   39   73 1
    73   39   87 1
    74   40   41 1
    75   40   74 1
    76   40   75 1
    77   41   42 1
    78   41   43 1
    79   41   76 1
    80   42   77 1
    81   42   78 1
    82   42   79 1
    83   43   80 1
    84   43   81 1
    85   43   82 1
    86   44   83 1
    87   45   84 1
    88   45   85 1
    89   45   86 1
@<TRIPOS>MOLECULE
CHEMBL454420
   81    84     0     0     0
SMALL
USER_CHARGES

@<TRIPOS>ATOM
      1 C1         -0.0187    1.5258    0.0104 C.3       1 <0>        -0.1680
      2 C2          0.0021   -0.0041    0.0020 C.3       1 <0>         0.1212
      3 N1         -1.3723   -0.5112    0.0124 N.pl3     1 <0>        -0.7458
      4 C3         -1.6089   -1.8880    0.0073 C.ar      1 <0>         0.2369
      5 C4         -0.5417   -2.7744   -0.0019 C.ar      1 <0>        -0.1914
      6 C5         -0.7789   -4.1488   -0.0065 C.ar      1 <0>        -0.0597
      7 C6         -2.0893   -4.6274   -0.0020 C.ar      1 <0>        -0.1454
      8 C7         -3.1515   -3.7357    0.0072 C.ar      1 <0>         0.2208
      9 C8         -2.9118   -2.3677    0.0171 C.ar      1 <0>        -0.2002
     10 N2         -4.4641   -4.2140    0.0113 N.pl3     1 <0>        -0.9356
     11 C9         -5.5693   -3.4009   -0.5177 C.3       1 <0>         0.1002
     12 C10        -6.6262   -3.2098    0.5684 C.3       1 <0>        -0.1587
     13 C11        -7.2606   -4.5465    0.9455 C.3       1 <0>        -0.1153
     14 C12        -6.2455   -5.4047    1.7093 C.3       1 <0>        -0.6079
     15 S1         -4.8252   -5.7250    0.6088 S.o2      1 <0>         2.5830
     16 O1         -5.2330   -6.4817   -0.5227 O.2       1 <0>        -0.9375
     17 O2         -3.6853   -6.1039    1.3680 O.2       1 <0>        -0.9371
     18 C13         0.3562   -5.0967   -0.0168 C.2       1 <0>         0.5637
     19 O3          0.1479   -6.2942   -0.0208 O.2       1 <0>        -0.4955
     20 N3          1.6215   -4.6327   -0.0216 N.am      1 <0>        -0.7250
     21 C14         2.7460   -5.5716   -0.0318 C.3       1 <0>         0.1269
     22 H1          2.4885   -6.4532    0.5553 H         1 <0>         0.1096
     23 C15         3.0491   -5.9888   -1.4723 C.3       1 <0>        -0.1007
     24 C16         1.8802   -6.7606   -2.0283 C.ar      1 <0>        -0.0803
     25 C17         1.8258   -8.1340   -1.8809 C.ar      1 <0>        -0.1071
     26 C18         0.7536   -8.8419   -2.3909 C.ar      1 <0>        -0.1112
     27 C19        -0.2644   -8.1764   -3.0478 C.ar      1 <0>        -0.1099
     28 C20        -0.2105   -6.8029   -3.1944 C.ar      1 <0>        -0.1087
     29 C21         0.8596   -6.0945   -2.6806 C.ar      1 <0>        -0.1052
     30 C22         3.9787   -4.8977    0.5741 C.3       1 <0>         0.0763
     31 H2          3.7356   -4.5215    1.5678 H         1 <0>         0.1332
     32 C23         5.1167   -5.9150    0.6782 C.3       1 <0>        -0.0500
     33 N4          6.2596   -5.3023    1.3684 N.4       1 <0>        -0.5024
     34 C24         7.3523   -6.2791    1.4684 C.3       1 <0>         0.0250
     35 C25         6.9163   -7.4423    2.3615 C.3       1 <0>        -0.1425
     36 C26         8.0543   -8.4597    2.4657 C.3       1 <0>        -0.1179
     37 C27         9.2870   -7.7857    3.0716 C.3       1 <0>        -0.1323
     38 C28         9.7230   -6.6225    2.1784 C.3       1 <0>        -0.1176
     39 C29         8.5850   -5.6051    2.0743 C.3       1 <0>        -0.1405
     40 O4          4.3859   -3.8112   -0.2601 O.3       1 <0>        -0.5500
     41 H3          1.0039    1.9031    0.0027 H         1 <0>         0.0743
     42 H4         -0.5459    1.8868   -0.8726 H         1 <0>         0.0639
     43 H5         -0.5289    1.8773    0.9072 H         1 <0>         0.0633
     44 H6          0.5123   -0.3556   -0.8948 H         1 <0>         0.0594
     45 H7          0.5293   -0.3651    0.8851 H         1 <0>         0.0581
     46 H8         -2.1181    0.1091    0.0229 H         1 <0>         0.4028
     47 H9          0.4715   -2.4006   -0.0057 H         1 <0>         0.1226
     48 H10        -2.2764   -5.6911   -0.0059 H         1 <0>         0.1463
     49 H11        -3.7407   -1.6755    0.0284 H         1 <0>         0.1326
     50 H12        -5.1882   -2.4283   -0.8289 H         1 <0>         0.1017
     51 H13        -6.0154   -3.9071   -1.3738 H         1 <0>         0.0909
     52 H14        -6.1592   -2.7724    1.4508 H         1 <0>         0.0814
     53 H15        -7.4004   -2.5359    0.2014 H         1 <0>         0.1008
     54 H16        -8.1322   -4.3691    1.5756 H         1 <0>         0.0951
     55 H17        -7.5692   -5.0695    0.0403 H         1 <0>         0.0867
     56 H18        -5.9110   -4.8727    2.5998 H         1 <0>         0.1382
     57 H19        -6.7062   -6.3498    1.9968 H         1 <0>         0.1394
     58 H20         1.7877   -3.6770   -0.0184 H         1 <0>         0.4051
     59 H21         3.2196   -5.1000   -2.0797 H         1 <0>         0.0814
     60 H22         3.9400   -6.6166   -1.4889 H         1 <0>         0.0780
     61 H23         2.6212   -8.6539   -1.3677 H         1 <0>         0.1113
     62 H24         0.7115   -9.9150   -2.2765 H         1 <0>         0.1195
     63 H25        -1.1018   -8.7296   -3.4469 H         1 <0>         0.1208
     64 H26        -1.0057   -6.2830   -3.7079 H         1 <0>         0.1184
     65 H27         0.8999   -5.0210   -2.7918 H         1 <0>         0.1109
     66 H28         4.7764   -6.7846    1.2405 H         1 <0>         0.1479
     67 H29         5.4198   -6.2248   -0.3219 H         1 <0>         0.1414
     68 H30         6.5747   -4.4974    0.8480 H         1 <0>         0.4320
     69 H31         7.5954   -6.6553    0.4747 H         1 <0>         0.1393
     70 H32         6.6732   -7.0661    3.3553 H         1 <0>         0.0880
     71 H33         6.0381   -7.9225    1.9299 H         1 <0>         0.0870
     72 H34         7.7437   -9.2884    3.1020 H         1 <0>         0.0853
     73 H35         8.2975   -8.8359    1.4720 H         1 <0>         0.0748
     74 H36         9.0439   -7.4095    4.0653 H         1 <0>         0.0705
     75 H37        10.0978   -8.5105    3.1458 H         1 <0>         0.0798
     76 H38        10.6012   -6.1423    2.6101 H         1 <0>         0.0854
     77 H39         9.9661   -6.9987    1.1847 H         1 <0>         0.0747
     78 H40         8.8956   -4.7764    1.4380 H         1 <0>         0.0880
     79 H41         8.3419   -5.2289    3.0680 H         1 <0>         0.0875
     80 H42         4.6180   -4.0730   -1.1616 H         1 <0>         0.3913
     81 H43         5.9791   -5.0155    2.2942 H         1 <0>         0.4267
@<TRIPOS>BOND
     1    1    2 1
     2    1   41 1
     3    1   42 1
     4    1   43 1
     5    2    3 1
     6    2   44 1
     7    2   45 1
     8    3    4 1
     9    3   46 1
    10    4    9 ar
    11    4    5 ar
    12    5    6 ar
    13    5   47 1
    14    6    7 ar
    15    6   18 1
    16    7    8 ar
    17    7   48 1
    18    8    9 ar
    19    8   10 1
    20    9   49 1
    21   10   15 1
    22   10   11 1
    23   11   12 1
    24   11   50 1
    25   11   51 1
    26   12   13 1
    27   12   52 1
    28   12   53 1
    29   13   14 1
    30   13   54 1
    31   13   55 1
    32   14   15 1
    33   14   56 1
    34   14   57 1
    35   15   16 2
    36   15   17 2
    37   18   19 2
    38   18   20 am
    39   20   21 1
    40   20   58 1
    41   21   22 1
    42   21   23 1
    43   21   30 1
    44   23   24 1
    45   23   59 1
    46   23   60 1
    47   24   29 ar
    48   24   25 ar
    49   25   26 ar
    50   25   61 1
    51   26   27 ar
    52   26   62 1
    53   27   28 ar
    54   27   63 1
    55   28   29 ar
    56   28   64 1
    57   29   65 1
    58   30   31 1
    59   30   32 1
    60   30   40 1
    61   32   33 1
    62   32   66 1
    63   32   67 1
    64   33   34 1
    65   33   68 1
    66   33   81 1
    67   34   39 1
    68   34   35 1
    69   34   69 1
    70   35   36 1
    71   35   70 1
    72   35   71 1
    73   36   37 1
    74   36   72 1
    75   36   73 1
    76   37   38 1
    77   37   74 1
    78   37   75 1
    79   38   39 1
    80   38   76 1
    81   38   77 1
    82   39   78 1
    83   39   79 1
    84   40   80 1
@<TRIPOS>MOLECULE
CHEMBL252458
   88    90     0     0     0
SMALL
USER_CHARGES

@<TRIPOS>ATOM
      1 C1          0.0235    1.5258    0.0347 C.3       1 <0>        -0.1680
      2 C2          0.0285   -0.0041    0.0172 C.3       1 <0>         0.1216
      3 N1          0.7142   -0.4765   -1.1882 N.pl3     1 <0>        -0.7460
      4 C3          0.8451   -1.8470   -1.4256 C.ar      1 <0>         0.2383
      5 C4          0.3205   -2.7599   -0.5223 C.ar      1 <0>        -0.1947
      6 C5          0.4514   -4.1279   -0.7606 C.ar      1 <0>        -0.0650
      7 C6          1.1098   -4.5731   -1.9072 C.ar      1 <0>        -0.1518
      8 C7          1.6317   -3.6552   -2.8057 C.ar      1 <0>         0.2104
      9 C8          1.4951   -2.2939   -2.5683 C.ar      1 <0>        -0.2103
     10 N2          2.2927   -4.1011   -3.9558 N.am      1 <0>        -0.5619
     11 C9          2.7803   -3.2212   -5.0244 C.3       1 <0>         0.0940
     12 C10         3.7908   -4.0695   -5.8279 C.3       1 <0>        -0.1323
     13 C11         3.2936   -5.5057   -5.5431 C.3       1 <0>        -0.1544
     14 C12         2.5676   -5.3899   -4.2210 C.2       1 <0>         0.5150
     15 O1          2.2740   -6.3243   -3.5056 O.2       1 <0>        -0.4975
     16 C13        -0.1060   -5.1041    0.2002 C.2       1 <0>         0.5639
     17 O2          0.0088   -6.2960   -0.0089 O.2       1 <0>        -0.4959
     18 N3         -0.7414   -4.6723    1.3075 N.am      1 <0>        -0.7251
     19 C14        -1.2936   -5.6395    2.2593 C.3       1 <0>         0.1277
     20 H1         -1.6664   -6.5093    1.7184 H         1 <0>         0.1088
     21 C15        -0.1993   -6.0763    3.2354 C.3       1 <0>        -0.1004
     22 C16         0.8737   -6.8230    2.4856 C.ar      1 <0>        -0.0800
     23 C17         0.7813   -8.1933    2.3287 C.ar      1 <0>        -0.1076
     24 C18         1.7656   -8.8781    1.6409 C.ar      1 <0>        -0.1110
     25 C19         2.8421   -8.1927    1.1097 C.ar      1 <0>        -0.1072
     26 C20         2.9340   -6.8222    1.2658 C.ar      1 <0>        -0.1054
     27 C21         1.9475   -6.1368    1.9499 C.ar      1 <0>        -0.1045
     28 C22        -2.4414   -4.9918    3.0365 C.3       1 <0>         0.0772
     29 H2         -3.1796   -4.6013    2.3361 H         1 <0>         0.1324
     30 C23        -3.0988   -6.0367    3.9404 C.3       1 <0>        -0.0555
     31 N4         -4.2738   -5.4473    4.5960 N.4       1 <0>        -0.4986
     32 C24        -4.9050   -6.4505    5.4639 C.3       1 <0>         0.0558
     33 C25        -5.3397   -7.6519    4.6222 C.3       1 <0>        -0.1816
     34 C26        -3.9038   -6.9078    6.5267 C.3       1 <0>        -0.1806
     35 C27        -6.1288   -5.8366    6.1467 C.3       1 <0>        -0.1368
     36 C28        -6.7862   -6.8814    7.0506 C.3       1 <0>        -0.1221
     37 C29        -8.0100   -6.2676    7.7335 C.3       1 <0>        -0.1167
     38 C30        -8.6674   -7.3124    8.6374 C.3       1 <0>        -0.0974
     39 C31        -7.7106   -7.6780    9.7739 C.3       1 <0>        -0.1521
     40 C32        -9.9597   -6.7396    9.2229 C.3       1 <0>        -0.1525
     41 O3         -1.9316   -3.9231    3.8365 O.3       1 <0>        -0.5498
     42 H3          1.0500    1.8925    0.0333 H         1 <0>         0.0639
     43 H4         -0.4963    1.8975   -0.8483 H         1 <0>         0.0635
     44 H5         -0.4866    1.8773    0.9315 H         1 <0>         0.0745
     45 H6          0.5484   -0.3758    0.9002 H         1 <0>         0.0589
     46 H7         -0.9979   -0.3708    0.0186 H         1 <0>         0.0578
     47 H8          1.0773    0.1623   -1.8214 H         1 <0>         0.4026
     48 H9         -0.1883   -2.4118    0.3645 H         1 <0>         0.1211
     49 H10         1.2132   -5.6317   -2.0945 H         1 <0>         0.1669
     50 H11         1.8990   -1.5811   -3.2719 H         1 <0>         0.1294
     51 H12         1.9542   -2.9119   -5.6647 H         1 <0>         0.0841
     52 H13         3.2752   -2.3486   -4.5981 H         1 <0>         0.0879
     53 H14         3.7332   -3.8406   -6.8920 H         1 <0>         0.0996
     54 H15         4.8046   -3.9264   -5.4539 H         1 <0>         0.0878
     55 H16         2.6138   -5.8367   -6.3283 H         1 <0>         0.1124
     56 H17         4.1368   -6.1906   -5.4535 H         1 <0>         0.1101
     57 H18        -0.8331   -3.7212    1.4744 H         1 <0>         0.4047
     58 H19         0.2348   -5.1972    3.7116 H         1 <0>         0.0810
     59 H20        -0.6300   -6.7266    3.9968 H         1 <0>         0.0773
     60 H21        -0.0598   -8.7288    2.7437 H         1 <0>         0.1107
     61 H22         1.6937   -9.9488    1.5189 H         1 <0>         0.1190
     62 H23         3.6114   -8.7278    0.5730 H         1 <0>         0.1195
     63 H24         3.7752   -6.2867    0.8511 H         1 <0>         0.1162
     64 H25         2.0175   -5.0656    2.0687 H         1 <0>         0.1094
     65 H26        -3.4085   -6.8926    3.3408 H         1 <0>         0.1489
     66 H27        -2.3855   -6.3625    4.6976 H         1 <0>         0.1433
     67 H28        -3.9871   -4.6549    5.1511 H         1 <0>         0.4303
     68 H29        -4.4678   -8.0893    4.1357 H         1 <0>         0.0822
     69 H30        -5.8080   -8.3963    5.2661 H         1 <0>         0.1093
     70 H31        -6.0529   -7.3261    3.8651 H         1 <0>         0.0833
     71 H32        -3.5941   -6.0519    7.1263 H         1 <0>         0.0832
     72 H33        -4.3721   -7.6522    7.1706 H         1 <0>         0.1091
     73 H34        -3.0319   -7.3451    6.0402 H         1 <0>         0.0813
     74 H35        -5.8191   -4.9807    6.7464 H         1 <0>         0.0881
     75 H36        -6.8421   -5.5108    5.3896 H         1 <0>         0.0879
     76 H37        -7.0959   -7.7374    6.4510 H         1 <0>         0.0759
     77 H38        -6.0729   -7.2072    7.8078 H         1 <0>         0.0790
     78 H39        -7.7003   -5.4116    8.3331 H         1 <0>         0.0663
     79 H40        -8.7233   -5.9418    6.9763 H         1 <0>         0.0658
     80 H41        -8.8967   -8.2044    8.0544 H         1 <0>         0.0706
     81 H42        -7.4812   -6.7859   10.3569 H         1 <0>         0.0557
     82 H43        -8.1789   -8.4223   10.4179 H         1 <0>         0.0584
     83 H44        -6.7900   -8.0860    9.3568 H         1 <0>         0.0527
     84 H45       -10.6413   -6.4792    8.4132 H         1 <0>         0.0555
     85 H46       -10.4280   -7.4840    9.8669 H         1 <0>         0.0590
     86 H47        -9.7303   -5.8476    9.8058 H         1 <0>         0.0559
     87 H48        -1.2681   -4.1982    4.4839 H         1 <0>         0.3909
     88 H49        -4.9340   -5.1457    3.8952 H         1 <0>         0.4268
@<TRIPOS>BOND
     1    1    2 1
     2    1   42 1
     3    1   43 1
     4    1   44 1
     5    2    3 1
     6    2   45 1
     7    2   46 1
     8    3    4 1
     9    3   47 1
    10    4    9 ar
    11    4    5 ar
    12    5    6 ar
    13    5   48 1
    14    6    7 ar
    15    6   16 1
    16    7    8 ar
    17    7   49 1
    18    8    9 ar
    19    8   10 1
    20    9   50 1
    21   10   14 am
    22   10   11 1
    23   11   12 1
    24   11   51 1
    25   11   52 1
    26   12   13 1
    27   12   53 1
    28   12   54 1
    29   13   14 1
    30   13   55 1
    31   13   56 1
    32   14   15 2
    33   16   17 2
    34   16   18 am
    35   18   19 1
    36   18   57 1
    37   19   20 1
    38   19   21 1
    39   19   28 1
    40   21   22 1
    41   21   58 1
    42   21   59 1
    43   22   27 ar
    44   22   23 ar
    45   23   24 ar
    46   23   60 1
    47   24   25 ar
    48   24   61 1
    49   25   26 ar
    50   25   62 1
    51   26   27 ar
    52   26   63 1
    53   27   64 1
    54   28   29 1
    55   28   30 1
    56   28   41 1
    57   30   31 1
    58   30   65 1
    59   30   66 1
    60   31   32 1
    61   31   67 1
    62   31   88 1
    63   32   33 1
    64   32   34 1
    65   32   35 1
    66   33   68 1
    67   33   69 1
    68   33   70 1
    69   34   71 1
    70   34   72 1
    71   34   73 1
    72   35   36 1
    73   35   74 1
    74   35   75 1
    75   36   37 1
    76   36   76 1
    77   36   77 1
    78   37   38 1
    79   37   78 1
    80   37   79 1
    81   38   39 1
    82   38   40 1
    83   38   80 1
    84   39   81 1
    85   39   82 1
    86   39   83 1
    87   40   84 1
    88   40   85 1
    89   40   86 1
    90   41   87 1
@<TRIPOS>MOLECULE
CHEMBL510737
   86    89     0     0     0
SMALL
USER_CHARGES

@<TRIPOS>ATOM
      1 C1          0.2639   -5.5250   -4.9342 C.3       1 <0>        -0.1538
      2 C2         -0.5393   -5.3912   -3.6389 C.3       1 <0>        -0.1485
      3 C3          0.0752   -4.2928   -2.7689 C.3       1 <0>         0.0954
      4 N1         -0.7780   -4.0603   -1.6009 N.am      1 <0>        -0.6040
      5 C4         -0.7079   -4.9650   -0.4509 C.3       1 <0>         0.1119
      6 C5          0.3442   -4.4549    0.5360 C.3       1 <0>        -0.1382
      7 C6          0.4174   -5.3998    1.7371 C.3       1 <0>        -0.1509
      8 C7         -1.6275   -3.0140   -1.5845 C.2       1 <0>         0.5580
      9 O1         -2.3892   -2.8643   -0.6492 O.2       1 <0>        -0.5234
     10 C8         -1.6328   -2.0484   -2.7042 C.ar      1 <0>        -0.1239
     11 C9         -1.6729   -2.5064   -4.0234 C.ar      1 <0>        -0.0680
     12 C10        -1.6779   -1.6061   -5.0700 C.ar      1 <0>        -0.0902
     13 C11        -1.6434   -0.2481   -4.8211 C.ar      1 <0>        -0.0678
     14 C12        -1.6027    0.2232   -3.5070 C.ar      1 <0>        -0.1451
     15 C13        -1.6037   -0.6799   -2.4459 C.ar      1 <0>        -0.0133
     16 C14        -1.5648    1.6774   -3.2422 C.2       1 <0>         0.5727
     17 O2         -1.4298    2.0848   -2.1050 O.2       1 <0>        -0.5175
     18 N2         -1.6799    2.5512   -4.2618 N.am      1 <0>        -0.7207
     19 C15        -1.5125    3.9862   -4.0192 C.3       1 <0>         0.1059
     20 H1         -1.7607    4.2107   -2.9818 H         1 <0>         0.0995
     21 C16        -0.0609    4.3840   -4.2939 C.3       1 <0>        -0.1088
     22 C17         0.8412    3.7207   -3.2853 C.ar      1 <0>        -0.0304
     23 C18         1.0305    4.2974   -2.0436 C.ar      1 <0>        -0.1590
     24 C19         1.8595    3.6891   -1.1162 C.ar      1 <0>         0.1459
     25 C20         2.4984    2.5026   -1.4329 C.ar      1 <0>        -0.1865
     26 C21         2.3076    1.9257   -2.6766 C.ar      1 <0>         0.1457
     27 C22         1.4740    2.5332   -3.6006 C.ar      1 <0>        -0.1562
     28 F1          2.9305    0.7678   -2.9871 F         1 <0>        -0.1240
     29 F2          2.0452    4.2535    0.0971 F         1 <0>        -0.1259
     30 C23        -2.4410    4.7721   -4.9472 C.3       1 <0>         0.0893
     31 H2         -3.4659    4.4255   -4.8143 H         1 <0>         0.1363
     32 C24        -2.3587    6.2620   -4.6088 C.3       1 <0>        -0.0274
     33 H3         -1.3338    6.6087   -4.7416 H         1 <0>         0.1506
     34 C25        -3.2888    7.0491   -5.5378 C.3       1 <0>         0.1137
     35 N3         -3.2927    8.4567   -5.1103 N.pl3     1 <0>        -0.6439
     36 C26        -3.5351    8.7489   -3.6891 C.3       1 <0>         0.0965
     37 C27        -2.5934    7.8816   -2.8474 C.3       1 <0>        -0.0235
     38 N4         -2.7694    6.4708   -3.2146 N.4       1 <0>        -0.5034
     39 C28        -3.0720    9.4865   -6.0278 C.ar      1 <0>         0.1935
     40 C29        -2.9246    9.1960   -7.3782 C.ar      1 <0>        -0.1854
     41 C30        -2.7070   10.2167   -8.2827 C.ar      1 <0>        -0.0707
     42 C31        -2.6353   11.5266   -7.8454 C.ar      1 <0>        -0.1545
     43 C32        -2.7816   11.8193   -6.5018 C.ar      1 <0>        -0.0709
     44 C33        -3.0052   10.8040   -5.5927 C.ar      1 <0>        -0.1856
     45 O3         -2.0416    4.5691   -6.3041 O.3       1 <0>        -0.5208
     46 C34        -1.7206   -2.1074   -6.4905 C.3       1 <0>        -0.1201
     47 H4         -0.1196   -6.3643   -5.5144 H         1 <0>         0.0634
     48 H5          0.1704   -4.6081   -5.5161 H         1 <0>         0.0560
     49 H6          1.3131   -5.6981   -4.6948 H         1 <0>         0.0609
     50 H7         -1.5711   -5.1320   -3.8763 H         1 <0>         0.0678
     51 H8         -0.5176   -6.3375   -3.0984 H         1 <0>         0.0735
     52 H9          1.0666   -4.6029   -2.4387 H         1 <0>         0.0829
     53 H10         0.1564   -3.3731   -3.3484 H         1 <0>         0.0877
     54 H11        -1.6797   -5.0029    0.0414 H         1 <0>         0.0882
     55 H12        -0.4335   -5.9638   -0.7905 H         1 <0>         0.0818
     56 H13         1.3159   -4.4170    0.0437 H         1 <0>         0.0629
     57 H14         0.0697   -3.4562    0.8756 H         1 <0>         0.0643
     58 H15        -0.5544   -5.4377    2.2294 H         1 <0>         0.0582
     59 H16         0.6918   -6.3985    1.3975 H         1 <0>         0.0572
     60 H17         1.1669   -5.0363    2.4401 H         1 <0>         0.0593
     61 H18        -1.6996   -3.5671   -4.2250 H         1 <0>         0.1468
     62 H19        -1.6475    0.4509   -5.6443 H         1 <0>         0.1298
     63 H20        -1.5772   -0.3206   -1.4278 H         1 <0>         0.1422
     64 H21        -1.8736    2.2299   -5.1564 H         1 <0>         0.4133
     65 H22         0.2196    4.0647   -5.2976 H         1 <0>         0.1007
     66 H23         0.0403    5.4665   -4.2154 H         1 <0>         0.0885
     67 H24         0.5320    5.2231   -1.7967 H         1 <0>         0.1317
     68 H25         3.1454    2.0276   -0.7104 H         1 <0>         0.1523
     69 H26         1.3216    2.0809   -4.5694 H         1 <0>         0.1399
     70 H27        -2.9270    6.9788   -6.5636 H         1 <0>         0.1336
     71 H28        -4.2987    6.6441   -5.4739 H         1 <0>         0.0915
     72 H29        -3.3363    9.8025   -3.4927 H         1 <0>         0.1300
     73 H30        -4.5700    8.5156   -3.4385 H         1 <0>         0.0910
     74 H31        -1.5615    8.1794   -3.0333 H         1 <0>         0.1371
     75 H32        -2.8251    8.0136   -1.7905 H         1 <0>         0.1496
     76 H33        -3.7400    6.2159   -3.1094 H         1 <0>         0.4304
     77 H34        -2.9798    8.1731   -7.7203 H         1 <0>         0.1234
     78 H35        -2.5923    9.9915   -9.3327 H         1 <0>         0.1287
     79 H36        -2.4644   12.3228   -8.5548 H         1 <0>         0.1270
     80 H37        -2.7251   12.8434   -6.1636 H         1 <0>         0.1286
     81 H38        -3.1238   11.0337   -4.5441 H         1 <0>         0.1229
     82 H39        -1.1380    4.8555   -6.4952 H         1 <0>         0.3907
     83 H40        -2.7581   -2.2068   -6.8097 H         1 <0>         0.0785
     84 H41        -1.2066   -1.3999   -7.1412 H         1 <0>         0.0725
     85 H42        -1.2282   -3.0781   -6.5483 H         1 <0>         0.0744
     86 H43        -2.2051    5.8939   -2.6090 H         1 <0>         0.4284
@<TRIPOS>BOND
     1    1    2 1
     2    1   47 1
     3    1   48 1
     4    1   49 1
     5    2    3 1
     6    2   50 1
     7    2   51 1
     8    3    4 1
     9    3   52 1
    10    3   53 1
    11    4    5 1
    12    4    8 am
    13    5    6 1
    14    5   54 1
    15    5   55 1
    16    6    7 1
    17    6   56 1
    18    6   57 1
    19    7   58 1
    20    7   59 1
    21    7   60 1
    22    8    9 2
    23    8   10 1
    24   10   15 ar
    25   10   11 ar
    26   11   12 ar
    27   11   61 1
    28   12   13 ar
    29   12   46 1
    30   13   14 ar
    31   13   62 1
    32   14   15 ar
    33   14   16 1
    34   15   63 1
    35   16   17 2
    36   16   18 am
    37   18   19 1
    38   18   64 1
    39   19   20 1
    40   19   21 1
    41   19   30 1
    42   21   22 1
    43   21   65 1
    44   21   66 1
    45   22   27 ar
    46   22   23 ar
    47   23   24 ar
    48   23   67 1
    49   24   25 ar
    50   24   29 1
    51   25   26 ar
    52   25   68 1
    53   26   27 ar
    54   26   28 1
    55   27   69 1
    56   30   31 1
    57   30   32 1
    58   30   45 1
    59   32   33 1
    60   32   38 1
    61   32   34 1
    62   34   35 1
    63   34   70 1
    64   34   71 1
    65   35   36 1
    66   35   39 1
    67   36   37 1
    68   36   72 1
    69   36   73 1
    70   37   38 1
    71   37   74 1
    72   37   75 1
    73   38   76 1
    74   38   86 1
    75   39   44 ar
    76   39   40 ar
    77   40   41 ar
    78   40   77 1
    79   41   42 ar
    80   41   78 1
    81   42   43 ar
    82   42   79 1
    83   43   44 ar
    84   43   80 1
    85   44   81 1
    86   45   82 1
    87   46   83 1
    88   46   84 1
    89   46   85 1
@<TRIPOS>MOLECULE
CHEMBL510737__1
   85    88     0     0     0
SMALL
USER_CHARGES

@<TRIPOS>ATOM
      1 C1          0.2920    0.7928    2.6213 C.3       1 <0>        -0.1495
      2 C2          0.1660   -0.6377    3.1493 C.3       1 <0>        -0.1400
      3 C3         -1.2512   -1.1534    2.8916 C.3       1 <0>         0.1155
      4 N1         -1.3718   -2.5231    3.3972 N.am      1 <0>        -0.6072
      5 C4         -1.8005   -2.7592    4.7780 C.3       1 <0>         0.0983
      6 C5         -3.3077   -2.5216    4.8918 C.3       1 <0>        -0.1478
      7 C6         -3.7845   -2.9298    6.2871 C.3       1 <0>        -0.1532
      8 C7         -1.0884   -3.5661    2.5920 C.2       1 <0>         0.5603
      9 O1         -0.6412   -3.3705    1.4787 O.2       1 <0>        -0.5236
     10 C8         -1.3214   -4.9482    3.0627 C.ar      1 <0>        -0.1301
     11 C9         -2.5132   -5.2741    3.7148 C.ar      1 <0>        -0.0753
     12 C10        -2.7323   -6.5642    4.1550 C.ar      1 <0>        -0.0947
     13 C11        -1.7765   -7.5406    3.9543 C.ar      1 <0>        -0.0673
     14 C12        -0.5805   -7.2282    3.3042 C.ar      1 <0>        -0.1338
     15 C13        -0.3556   -5.9296    2.8519 C.ar      1 <0>        -0.0146
     16 C14         0.4422   -8.2746    3.0911 C.2       1 <0>         0.5619
     17 O2          1.5218   -7.9814    2.6158 O.2       1 <0>        -0.5158
     18 N2          0.1773   -9.5535    3.4237 N.am      1 <0>        -0.7208
     19 C15         1.2113  -10.5797    3.2695 C.3       1 <0>         0.1254
     20 H1          1.9083  -10.2786    2.4874 H         1 <0>         0.1257
     21 C16         1.9667  -10.7451    4.5897 C.3       1 <0>        -0.0999
     22 C17         2.7339   -9.4835    4.8909 C.ar      1 <0>        -0.0124
     23 C18         3.9784   -9.2805    4.3251 C.ar      1 <0>        -0.1447
     24 C19         4.6846   -8.1219    4.6015 C.ar      1 <0>         0.1388
     25 C20         4.1434   -7.1666    5.4444 C.ar      1 <0>        -0.1949
     26 C21         2.8967   -7.3708    6.0102 C.ar      1 <0>         0.1335
     27 C22         2.1901   -8.5279    5.7282 C.ar      1 <0>        -0.1608
     28 F1          2.3673   -6.4393    6.8331 F         1 <0>        -0.1328
     29 F2          5.9015   -7.9241    4.0490 F         1 <0>        -0.1310
     30 C23         0.5576  -11.9088    2.8860 C.3       1 <0>         0.1094
     31 H2         -0.0529  -11.7694    1.9938 H         1 <0>         0.1106
     32 C24         1.6438  -12.9486    2.6033 C.3       1 <0>         0.0433
     33 H3          2.2544  -13.0884    3.4953 H         1 <0>         0.0942
     34 C25         0.9895  -14.2797    2.2179 C.3       1 <0>         0.0954
     35 N3          2.0454  -15.2175    1.8070 N.pl3     1 <0>        -0.6317
     36 C26         3.0184  -14.7715    0.7982 C.3       1 <0>         0.0800
     37 C27         3.5927  -13.4211    1.2396 C.3       1 <0>         0.0449
     38 N4          2.4911  -12.4840    1.4970 N.3       1 <0>        -0.6730
     39 C28         2.1223  -16.4976    2.3604 C.ar      1 <0>         0.2184
     40 C29         1.1255  -16.9466    3.2173 C.ar      1 <0>        -0.1989
     41 C30         1.2044  -18.2131    3.7624 C.ar      1 <0>        -0.0713
     42 C31         2.2745  -19.0338    3.4564 C.ar      1 <0>        -0.1784
     43 C32         3.2685  -18.5900    2.6037 C.ar      1 <0>        -0.0714
     44 C33         3.1929  -17.3268    2.0506 C.ar      1 <0>        -0.1993
     45 O3         -0.2672  -12.3618    3.9614 O.3       1 <0>        -0.5531
     46 C34        -4.0200   -6.9083    4.8581 C.3       1 <0>        -0.1168
     47 H4         -0.4263    1.4335    3.1327 H         1 <0>         0.0550
     48 H5          1.3017    1.1602    2.8048 H         1 <0>         0.0580
     49 H6          0.0905    0.8038    1.5501 H         1 <0>         0.0572
     50 H7          0.8844   -1.2783    2.6378 H         1 <0>         0.0677
     51 H8          0.3676   -0.6487    4.2204 H         1 <0>         0.0622
     52 H9         -1.9696   -0.5128    3.4031 H         1 <0>         0.0792
     53 H10        -1.4527   -1.1424    1.8205 H         1 <0>         0.0846
     54 H11        -1.5727   -3.7875    5.0585 H         1 <0>         0.0893
     55 H12        -1.2737   -2.0757    5.4439 H         1 <0>         0.0795
     56 H13        -3.5223   -1.4654    4.7291 H         1 <0>         0.0703
     57 H14        -3.8271   -3.1177    4.1415 H         1 <0>         0.0696
     58 H15        -4.8395   -2.6797    6.3982 H         1 <0>         0.0610
     59 H16        -3.6499   -4.0036    6.4173 H         1 <0>         0.0578
     60 H17        -3.2036   -2.3969    7.0399 H         1 <0>         0.0593
     61 H18        -3.2646   -4.5151    3.8752 H         1 <0>         0.1435
     62 H19        -1.9541   -8.5478    4.3011 H         1 <0>         0.1306
     63 H20         0.5655   -5.6839    2.3444 H         1 <0>         0.1422
     64 H21        -0.6981   -9.7944    3.7653 H         1 <0>         0.4024
     65 H22         1.2559  -10.9387    5.3931 H         1 <0>         0.0815
     66 H23         2.6605  -11.5819    4.5089 H         1 <0>         0.0939
     67 H24         4.4005  -10.0260    3.6674 H         1 <0>         0.1413
     68 H25         4.6936   -6.2628    5.6609 H         1 <0>         0.1450
     69 H26         1.2155   -8.6854    6.1660 H         1 <0>         0.1345
     70 H27         0.4526  -14.6856    3.0752 H         1 <0>         0.0945
     71 H28         0.2979  -14.1216    1.3904 H         1 <0>         0.0618
     72 H29         3.8228  -15.5025    0.7170 H         1 <0>         0.0899
     73 H30         2.5217  -14.6607   -0.1657 H         1 <0>         0.0624
     74 H31         4.1766  -13.5543    2.1503 H         1 <0>         0.0796
     75 H32         4.2324  -13.0229    0.4519 H         1 <0>         0.0918
     76 H33         1.9447  -12.3310    0.6626 H         1 <0>         0.3452
     77 H34         0.2898  -16.3059    3.4573 H         1 <0>         0.1213
     78 H35         0.4297  -18.5628    4.4287 H         1 <0>         0.1207
     79 H36         2.3341  -20.0235    3.8846 H         1 <0>         0.1182
     80 H37         4.1029  -19.2335    2.3667 H         1 <0>         0.1206
     81 H38         3.9673  -16.9825    1.3811 H         1 <0>         0.1209
     82 H39         0.2108  -12.5074    4.7893 H         1 <0>         0.3776
     83 H40        -4.7608   -7.2263    4.1245 H         1 <0>         0.0756
     84 H41        -3.8417   -7.7159    5.5681 H         1 <0>         0.0716
     85 H42        -4.3889   -6.0315    5.3903 H         1 <0>         0.0709
@<TRIPOS>BOND
     1    1    2 1
     2    1   47 1
     3    1   48 1
     4    1   49 1
     5    2    3 1
     6    2   50 1
     7    2   51 1
     8    3    4 1
     9    3   52 1
    10    3   53 1
    11    4    5 1
    12    4    8 am
    13    5    6 1
    14    5   54 1
    15    5   55 1
    16    6    7 1
    17    6   56 1
    18    6   57 1
    19    7   58 1
    20    7   59 1
    21    7   60 1
    22    8    9 2
    23    8   10 1
    24   10   15 ar
    25   10   11 ar
    26   11   12 ar
    27   11   61 1
    28   12   13 ar
    29   12   46 1
    30   13   14 ar
    31   13   62 1
    32   14   15 ar
    33   14   16 1
    34   15   63 1
    35   16   17 2
    36   16   18 am
    37   18   19 1
    38   18   64 1
    39   19   20 1
    40   19   21 1
    41   19   30 1
    42   21   22 1
    43   21   65 1
    44   21   66 1
    45   22   27 ar
    46   22   23 ar
    47   23   24 ar
    48   23   67 1
    49   24   25 ar
    50   24   29 1
    51   25   26 ar
    52   25   68 1
    53   26   27 ar
    54   26   28 1
    55   27   69 1
    56   30   31 1
    57   30   32 1
    58   30   45 1
    59   32   33 1
    60   32   38 1
    61   32   34 1
    62   34   35 1
    63   34   70 1
    64   34   71 1
    65   35   36 1
    66   35   39 1
    67   36   37 1
    68   36   72 1
    69   36   73 1
    70   37   38 1
    71   37   74 1
    72   37   75 1
    73   38   76 1
    74   39   44 ar
    75   39   40 ar
    76   40   41 ar
    77   40   77 1
    78   41   42 ar
    79   41   78 1
    80   42   43 ar
    81   42   79 1
    82   43   44 ar
    83   43   80 1
    84   44   81 1
    85   45   82 1
    86   46   83 1
    87   46   84 1
    88   46   85 1
@<TRIPOS>MOLECULE
CHEMBL561217
   70    74     0     0     0
SMALL
USER_CHARGES

@<TRIPOS>ATOM
      1 C1         -0.0187    1.5258    0.0104 C.3       1 <0>        -0.1426
      2 C2          0.0021   -0.0041    0.0020 C.3       1 <0>        -0.0458
      3 C3         -1.4117   -0.5257    0.0127 C.2       1 <0>        -0.1598
      4 C4         -2.1235   -0.8915    1.0897 C.2       1 <0>         0.0438
      5 N1         -3.3963   -1.2173    0.6759 N.pl3     1 <0>        -0.4997
      6 C5         -3.3576   -1.5238   -0.6558 C.ar      1 <0>         0.0809
      7 C6         -2.2762   -0.7256   -1.1452 C.ar      1 <0>        -0.0915
      8 C7         -2.3095   -0.3004   -2.4673 C.ar      1 <0>        -0.0799
      9 C8         -3.1739   -0.9266   -3.3634 C.ar      1 <0>        -0.1455
     10 C9         -3.9306   -2.0220   -2.9238 C.ar      1 <0>        -0.1473
     11 C10        -3.9089   -2.3917   -1.5810 C.ar      1 <0>         0.2588
     12 N2         -4.2880   -3.6937   -1.2660 N.2       1 <0>        -1.0802
     13 S1         -5.6570   -4.0879   -0.4513 S.o2      1 <0>         2.5382
     14 O1         -6.6965   -3.3990   -1.1325 O.2       1 <0>        -1.0332
     15 O2         -5.6471   -5.5075   -0.3893 O.2       1 <0>        -0.9958
     16 C11        -5.4212   -3.3827    1.2144 C.3       1 <0>        -0.6635
     17 C12        -5.7602   -1.8900    1.1127 C.3       1 <0>        -0.1169
     18 C13        -4.5706   -1.0332    1.5380 C.3       1 <0>         0.1303
     19 C14        -3.2913   -0.4436   -4.7539 C.2       1 <0>         0.5771
     20 O3         -2.6309    0.5074   -5.1249 O.2       1 <0>        -0.5296
     21 N3         -4.1305   -1.0570   -5.6118 N.am      1 <0>        -0.7304
     22 C15        -4.2470   -0.5778   -6.9913 C.3       1 <0>         0.1300
     23 H1         -4.1426    0.5070   -7.0091 H         1 <0>         0.1047
     24 C16        -3.1464   -1.2102   -7.8455 C.3       1 <0>        -0.1016
     25 C17        -1.8007   -0.7280   -7.3682 C.ar      1 <0>        -0.0745
     26 C18        -1.2467    0.4185   -7.9062 C.ar      1 <0>        -0.1098
     27 C19        -0.0123    0.8608   -7.4685 C.ar      1 <0>        -0.1167
     28 C20         0.6678    0.1568   -6.4924 C.ar      1 <0>        -0.1132
     29 C21         0.1134   -0.9893   -5.9538 C.ar      1 <0>        -0.1040
     30 C22        -1.1229   -1.4292   -6.3885 C.ar      1 <0>        -0.0958
     31 C23        -5.6158   -0.9678   -7.5528 C.3       1 <0>         0.0725
     32 H2         -6.3990   -0.5919   -6.8945 H         1 <0>         0.1332
     33 C24        -5.7867   -0.3614   -8.9470 C.3       1 <0>        -0.0400
     34 N4         -7.1445   -0.6345   -9.4367 N.4       1 <0>        -0.4753
     35 C25        -7.3086   -0.0522  -10.7753 C.3       1 <0>        -0.0830
     36 C26        -8.3437    1.0625  -10.9388 C.3       1 <0>        -0.1552
     37 C27        -8.6217   -0.3293  -11.5101 C.3       1 <0>        -0.1551
     38 O4         -5.7077   -2.3913   -7.6380 O.3       1 <0>        -0.5461
     39 H3          1.0039    1.9031    0.0027 H         1 <0>         0.0502
     40 H4         -0.5459    1.8868   -0.8726 H         1 <0>         0.0536
     41 H5         -0.5289    1.8773    0.9072 H         1 <0>         0.0507
     42 H6          0.5123   -0.3556   -0.8948 H         1 <0>         0.0652
     43 H7          0.5293   -0.3651    0.8851 H         1 <0>         0.0639
     44 H8         -1.7607   -0.9253    2.1063 H         1 <0>         0.1589
     45 H9         -1.6725    0.5070   -2.7970 H         1 <0>         0.1168
     46 H10        -4.5283   -2.5830   -3.6270 H         1 <0>         0.1116
     47 H11        -6.0904   -3.8697    1.9237 H         1 <0>         0.1026
     48 H12        -4.3856   -3.5094    1.5298 H         1 <0>         0.1166
     49 H13        -6.0238   -1.6514    0.0823 H         1 <0>         0.0822
     50 H14        -6.6097   -1.6703    1.7594 H         1 <0>         0.0852
     51 H15        -4.2991   -1.2924    2.5613 H         1 <0>         0.0770
     52 H16        -4.8656    0.0158    1.5104 H         1 <0>         0.0710
     53 H17        -4.6574   -1.8157   -5.3158 H         1 <0>         0.4098
     54 H18        -3.1959   -2.2954   -7.7567 H         1 <0>         0.0813
     55 H19        -3.2860   -0.9242   -8.8879 H         1 <0>         0.0724
     56 H20        -1.7781    0.9685   -8.6688 H         1 <0>         0.1072
     57 H21         0.4208    1.7562   -7.8893 H         1 <0>         0.1144
     58 H22         1.6325    0.5019   -6.1509 H         1 <0>         0.1166
     59 H23         0.6449   -1.5395   -5.1915 H         1 <0>         0.1189
     60 H24        -1.5577   -2.3225   -5.9650 H         1 <0>         0.1152
     61 H25        -5.6285    0.7159   -8.8965 H         1 <0>         0.1459
     62 H26        -5.0592   -0.8039   -9.6274 H         1 <0>         0.1399
     63 H27        -7.2909   -1.6317   -9.4834 H         1 <0>         0.4336
     64 H28        -6.4004    0.0120  -11.3746 H         1 <0>         0.1769
     65 H29        -8.9030    1.3638  -10.0530 H         1 <0>         0.1216
     66 H30        -8.1166    1.8606  -11.6456 H         1 <0>         0.1327
     67 H31        -8.5774   -0.4470  -12.5928 H         1 <0>         0.1328
     68 H32        -9.3638   -0.9437  -11.0002 H         1 <0>         0.1216
     69 H33        -5.0396   -2.7951   -8.2086 H         1 <0>         0.3891
     70 H34        -7.8179   -0.2249   -8.8069 H         1 <0>         0.4270
@<TRIPOS>BOND
     1    1    2 1
     2    1   39 1
     3    1   40 1
     4    1   41 1
     5    2    3 1
     6    2   42 1
     7    2   43 1
     8    3    7 1
     9    3    4 2
    10    4    5 1
    11    4   44 1
    12    5   18 1
    13    5    6 1
    14    6   11 ar
    15    6    7 ar
    16    7    8 ar
    17    8    9 ar
    18    8   45 1
    19    9   10 ar
    20    9   19 1
    21   10   11 ar
    22   10   46 1
    23   11   12 1
    24   12   13 1
    25   13   14 2
    26   13   15 2
    27   13   16 1
    28   16   17 1
    29   16   47 1
    30   16   48 1
    31   17   18 1
    32   17   49 1
    33   17   50 1
    34   18   51 1
    35   18   52 1
    36   19   20 2
    37   19   21 am
    38   21   22 1
    39   21   53 1
    40   22   23 1
    41   22   24 1
    42   22   31 1
    43   24   25 1
    44   24   54 1
    45   24   55 1
    46   25   30 ar
    47   25   26 ar
    48   26   27 ar
    49   26   56 1
    50   27   28 ar
    51   27   57 1
    52   28   29 ar
    53   28   58 1
    54   29   30 ar
    55   29   59 1
    56   30   60 1
    57   31   32 1
    58   31   33 1
    59   31   38 1
    60   33   34 1
    61   33   61 1
    62   33   62 1
    63   34   35 1
    64   34   63 1
    65   34   70 1
    66   35   37 1
    67   35   36 1
    68   35   64 1
    69   36   37 1
    70   36   65 1
    71   36   66 1
    72   37   67 1
    73   37   68 1
    74   38   69 1
@<TRIPOS>MOLECULE
CHEMBL561217__1
   71    75     0     0     0
SMALL
USER_CHARGES

@<TRIPOS>ATOM
      1 C1         -0.0187    1.5258    0.0104 C.3       1 <0>        -0.1472
      2 C2          0.0021   -0.0041    0.0020 C.3       1 <0>        -0.0546
      3 C3          0.7309   -0.5033    1.2229 C.2       1 <0>        -0.1347
      4 C4          2.0283   -0.8364    1.3022 C.2       1 <0>         0.0526
      5 N1          2.3142   -1.1505    2.6125 N.pl3     1 <0>        -0.5026
      6 C5          1.1496   -1.4841    3.2459 C.ar      1 <0>         0.1421
      7 C6          0.1654   -0.7129    2.5512 C.ar      1 <0>        -0.1047
      8 C7         -0.9733   -0.3137    3.2395 C.ar      1 <0>         0.0005
      9 C8         -1.3015   -0.9441    4.4383 C.ar      1 <0>        -0.1646
     10 C9         -0.5152   -2.0186    4.8777 C.ar      1 <0>        -0.0735
     11 C10         0.6458   -2.3617    4.1889 C.ar      1 <0>         0.1286
     12 N2          1.1406   -3.6511    4.3643 N.pl3     1 <0>        -1.0543
     13 S1          2.5404   -4.0074    5.1435 S.o2      1 <0>         2.5970
     14 O1          2.4530   -3.3165    6.3821 O.2       1 <0>        -0.9445
     15 O2          2.6249   -5.4255    5.1086 O.2       1 <0>        -0.9487
     16 C11         3.8466   -3.2725    4.1038 C.3       1 <0>        -0.6265
     17 C12         3.8904   -1.7770    4.4433 C.3       1 <0>        -0.1303
     18 C13         3.6429   -0.9309    3.1978 C.3       1 <0>         0.1204
     19 C14        -2.4589   -0.4872    5.2335 C.2       1 <0>         0.5729
     20 O3         -3.1340    0.4457    4.8437 O.2       1 <0>        -0.5091
     21 N3         -2.7669   -1.1045    6.3913 N.am      1 <0>        -0.7271
     22 C15        -3.9151   -0.6513    7.1802 C.3       1 <0>         0.1289
     23 H1         -4.0099    0.4312    7.0950 H         1 <0>         0.1095
     24 C16        -5.1888   -1.3176    6.6563 C.3       1 <0>        -0.1023
     25 C17        -5.4602   -0.8471    5.2506 C.ar      1 <0>        -0.0778
     26 C18        -6.2316    0.2797    5.0358 C.ar      1 <0>        -0.1068
     27 C19        -6.4805    0.7114    3.7464 C.ar      1 <0>        -0.1117
     28 C20        -5.9577    0.0165    2.6718 C.ar      1 <0>        -0.1108
     29 C21        -5.1855   -1.1098    2.8867 C.ar      1 <0>        -0.1083
     30 C22        -4.9330   -1.5389    4.1762 C.ar      1 <0>        -0.1040
     31 C23        -3.7074   -1.0310    8.6477 C.3       1 <0>         0.0732
     32 H2         -2.7555   -0.6299    8.9957 H         1 <0>         0.1334
     33 C24        -4.8444   -0.4500    9.4907 C.3       1 <0>        -0.0407
     34 N4         -4.5830   -0.7117   10.9124 N.4       1 <0>        -0.4748
     35 C25        -5.6747   -0.1538   11.7217 C.3       1 <0>        -0.0859
     36 C26        -5.3269    0.9734   12.6960 C.3       1 <0>        -0.1541
     37 C27        -5.6477   -0.4250   13.2273 C.3       1 <0>        -0.1534
     38 O4         -3.6996   -2.4544    8.7749 O.3       1 <0>        -0.5492
     39 H3          1.0039    1.9031    0.0027 H         1 <0>         0.0551
     40 H4         -0.5459    1.8868   -0.8726 H         1 <0>         0.0601
     41 H5         -0.5289    1.8773    0.9072 H         1 <0>         0.0539
     42 H6         -1.0205   -0.3814    0.0098 H         1 <0>         0.0723
     43 H7          0.5123   -0.3556   -0.8948 H         1 <0>         0.0754
     44 H8          2.7280   -0.8555    0.4798 H         1 <0>         0.1769
     45 H9         -1.5974    0.4770    2.8499 H         1 <0>         0.1407
     46 H10        -0.8114   -2.5841    5.7489 H         1 <0>         0.1342
     47 H11         0.6240   -4.3876    4.0016 H         1 <0>         0.4292
     48 H12         4.8075   -3.7346    4.3301 H         1 <0>         0.1459
     49 H13         3.6050   -3.4088    3.0497 H         1 <0>         0.1380
     50 H14         3.1242   -1.5553    5.1861 H         1 <0>         0.0879
     51 H15         4.8694   -1.5312    4.8547 H         1 <0>         0.1118
     52 H16         4.3997   -1.1739    2.4520 H         1 <0>         0.0957
     53 H17         3.7400    0.1217    3.4634 H         1 <0>         0.0906
     54 H18        -2.2282   -1.8489    6.7023 H         1 <0>         0.4059
     55 H19        -5.0599   -2.4000    6.6586 H         1 <0>         0.0819
     56 H20        -6.0288   -1.0504    7.2975 H         1 <0>         0.0783
     57 H21        -6.6401    0.8226    5.8753 H         1 <0>         0.1110
     58 H22        -7.0838    1.5913    3.5785 H         1 <0>         0.1188
     59 H23        -6.1527    0.3534    1.6644 H         1 <0>         0.1197
     60 H24        -4.7773   -1.6528    2.0471 H         1 <0>         0.1180
     61 H25        -4.3266   -2.4167    4.3442 H         1 <0>         0.1109
     62 H26        -4.9068    0.6255    9.3247 H         1 <0>         0.1473
     63 H27        -5.7860   -0.9173    9.2024 H         1 <0>         0.1412
     64 H28        -4.5253   -1.7073   11.0660 H         1 <0>         0.4334
     65 H29        -6.6490   -0.1157   11.2346 H         1 <0>         0.1779
     66 H30        -4.2881    1.3011   12.7365 H         1 <0>         0.1217
     67 H31        -6.0724    1.7536   12.8499 H         1 <0>         0.1343
     68 H32        -6.6043   -0.5650   13.7307 H         1 <0>         0.1347
     69 H33        -4.8200   -1.0174   13.6172 H         1 <0>         0.1221
     70 H34        -4.5174   -2.8799    8.4830 H         1 <0>         0.3915
     71 H35        -3.7114   -0.2791   11.1793 H         1 <0>         0.4268
@<TRIPOS>BOND
     1    1    2 1
     2    1   39 1
     3    1   40 1
     4    1   41 1
     5    2    3 1
     6    2   42 1
     7    2   43 1
     8    3    7 1
     9    3    4 2
    10    4    5 1
    11    4   44 1
    12    5   18 1
    13    5    6 1
    14    6   11 ar
    15    6    7 ar
    16    7    8 ar
    17    8    9 ar
    18    8   45 1
    19    9   10 ar
    20    9   19 1
    21   10   11 ar
    22   10   46 1
    23   11   12 1
    24   12   13 1
    25   12   47 1
    26   13   14 2
    27   13   15 2
    28   13   16 1
    29   16   17 1
    30   16   48 1
    31   16   49 1
    32   17   18 1
    33   17   50 1
    34   17   51 1
    35   18   52 1
    36   18   53 1
    37   19   20 2
    38   19   21 am
    39   21   22 1
    40   21   54 1
    41   22   23 1
    42   22   24 1
    43   22   31 1
    44   24   25 1
    45   24   55 1
    46   24   56 1
    47   25   30 ar
    48   25   26 ar
    49   26   27 ar
    50   26   57 1
    51   27   28 ar
    52   27   58 1
    53   28   29 ar
    54   28   59 1
    55   29   30 ar
    56   29   60 1
    57   30   61 1
    58   31   32 1
    59   31   33 1
    60   31   38 1
    61   33   34 1
    62   33   62 1
    63   33   63 1
    64   34   35 1
    65   34   64 1
    66   34   71 1
    67   35   37 1
    68   35   36 1
    69   35   65 1
    70   36   37 1
    71   36   66 1
    72   36   67 1
    73   37   68 1
    74   37   69 1
    75   38   70 1
@<TRIPOS>MOLECULE
CHEMBL564712
   79    82     0     0     0
SMALL
USER_CHARGES

@<TRIPOS>ATOM
      1 C1         -0.0187    1.5257    0.0295 C.3       1 <0>        -0.1689
      2 C2          0.0021   -0.0042    0.0264 C.3       1 <0>         0.1196
      3 N1         -1.3723   -0.5112    0.0124 N.pl3     1 <0>        -0.7455
      4 C3         -1.6089   -1.8880    0.0073 C.ar      1 <0>         0.2348
      5 C4         -0.5432   -2.7604   -0.1067 C.ar      1 <0>        -0.1805
      6 C5         -0.7637   -4.1377   -0.1163 C.ar      1 <0>        -0.0749
      7 C6         -2.0697   -4.6166   -0.0228 C.ar      1 <0>        -0.1205
      8 C7         -3.1327   -3.7316    0.0852 C.ar      1 <0>         0.2132
      9 C8         -2.9221   -2.3619    0.1236 C.ar      1 <0>        -0.1470
     10 C9         -3.9917   -1.3144    0.3090 C.3       1 <0>        -0.1099
     11 C10        -5.1469   -1.8046    1.1817 C.3       1 <0>        -0.1023
     12 C11        -6.3086   -2.2875    0.2682 C.3       1 <0>        -0.6298
     13 S1         -5.6023   -3.5645   -0.8142 S.o2      1 <0>         2.6015
     14 O1         -6.5405   -4.6095   -1.0311 O.2       1 <0>        -0.9446
     15 O2         -4.9051   -2.9688   -1.8997 O.2       1 <0>        -0.9362
     16 N2         -4.4290   -4.2253    0.1405 N.pl3     1 <0>        -0.9456
     17 C12        -4.7610   -5.3233    1.0517 C.3       1 <0>         0.0715
     18 C13         0.3728   -5.0776   -0.2247 C.2       1 <0>         0.5674
     19 O3          0.1715   -6.2763   -0.2323 O.2       1 <0>        -0.5020
     20 N3          1.6317   -4.6050   -0.3151 N.am      1 <0>        -0.7243
     21 C14         2.7577   -5.5361   -0.4225 C.3       1 <0>         0.1279
     22 H1          2.5490   -6.4283    0.1679 H         1 <0>         0.1095
     23 C15         2.9564   -5.9292   -1.8878 C.3       1 <0>        -0.1015
     24 C16         1.7542   -6.7002   -2.3685 C.ar      1 <0>        -0.0801
     25 C17         1.7185   -8.0761   -2.2392 C.ar      1 <0>        -0.1076
     26 C18         0.6157   -8.7834   -2.6802 C.ar      1 <0>        -0.1114
     27 C19        -0.4516   -8.1148   -3.2501 C.ar      1 <0>        -0.1099
     28 C20        -0.4163   -6.7389   -3.3786 C.ar      1 <0>        -0.1075
     29 C21         0.6847   -6.0312   -2.9337 C.ar      1 <0>        -0.1044
     30 C22         4.0278   -4.8632    0.1017 C.3       1 <0>         0.0763
     31 H2          3.8562   -4.5038    1.1164 H         1 <0>         0.1335
     32 C23         5.1761   -5.8743    0.1061 C.3       1 <0>        -0.0505
     33 N4          6.3631   -5.2645    0.7201 N.4       1 <0>        -0.5007
     34 C24         7.4656   -6.2352    0.7242 C.3       1 <0>         0.0228
     35 C25         7.1089   -7.4118    1.6379 C.3       1 <0>        -0.1804
     36 C26         8.2943   -8.3788    1.6979 C.3       1 <0>         0.0617
     37 O4          9.4520   -7.6828    2.1642 O.3       1 <0>        -0.3675
     38 C27         9.8606   -6.6016    1.3240 C.3       1 <0>         0.0619
     39 C28         8.7382   -5.5632    1.2489 C.3       1 <0>        -0.1791
     40 O5          4.3665   -3.7614   -0.7429 O.3       1 <0>        -0.5496
     41 H3          1.0039    1.9029    0.0399 H         1 <0>         0.0750
     42 H4         -0.5290    1.8839   -0.8646 H         1 <0>         0.0646
     43 H5         -0.5457    1.8802    0.9153 H         1 <0>         0.0634
     44 H6          0.5291   -0.3586   -0.8594 H         1 <0>         0.0598
     45 H7          0.5124   -0.3624    0.9205 H         1 <0>         0.0593
     46 H8         -2.1181    0.1091    0.0067 H         1 <0>         0.4035
     47 H9          0.4624   -2.3751   -0.1890 H         1 <0>         0.1238
     48 H10        -2.2546   -5.6806   -0.0347 H         1 <0>         0.1395
     49 H11        -3.5468   -0.4349    0.7745 H         1 <0>         0.0914
     50 H12        -4.3831   -1.0333   -0.6687 H         1 <0>         0.0949
     51 H13        -4.8066   -2.6310    1.8057 H         1 <0>         0.0887
     52 H14        -5.4964   -0.9891    1.8148 H         1 <0>         0.0937
     53 H15        -7.1103   -2.7106    0.8734 H         1 <0>         0.1402
     54 H16        -6.6861   -1.4572   -0.3286 H         1 <0>         0.1394
     55 H17        -5.0708   -4.9158    2.0141 H         1 <0>         0.0664
     56 H18        -5.5738   -5.9135    0.6285 H         1 <0>         0.0939
     57 H19        -3.8855   -5.9576    1.1906 H         1 <0>         0.0855
     58 H20         1.7923   -3.6484   -0.3091 H         1 <0>         0.4057
     59 H21         3.0768   -5.0300   -2.4920 H         1 <0>         0.0817
     60 H22         3.8472   -6.5506   -1.9796 H         1 <0>         0.0778
     61 H23         2.5524   -8.5984   -1.7940 H         1 <0>         0.1107
     62 H24         0.5882   -9.8583   -2.5799 H         1 <0>         0.1192
     63 H25        -1.3129   -8.6674   -3.5953 H         1 <0>         0.1204
     64 H26        -1.2500   -6.2166   -3.8241 H         1 <0>         0.1192
     65 H27         0.7107   -4.9558   -3.0306 H         1 <0>         0.1109
     66 H28         4.8829   -6.7546    0.6780 H         1 <0>         0.1478
     67 H29         5.4065   -6.1667   -0.9183 H         1 <0>         0.1421
     68 H30         6.6346   -4.4495    0.1906 H         1 <0>         0.4333
     69 H31         7.6361   -6.5977   -0.2895 H         1 <0>         0.1420
     70 H32         6.8896   -7.0418    2.6395 H         1 <0>         0.0985
     71 H33         6.2360   -7.9298    1.2407 H         1 <0>         0.1002
     72 H34         8.0622   -9.1964    2.3804 H         1 <0>         0.1172
     73 H35         8.4873   -8.7795    0.7028 H         1 <0>         0.0666
     74 H36        10.7569   -6.1388    1.7371 H         1 <0>         0.1176
     75 H37        10.0741   -6.9790    0.3239 H         1 <0>         0.0666
     76 H38         9.0304   -4.7591    0.5735 H         1 <0>         0.1020
     77 H39         8.5518   -5.1558    2.2426 H         1 <0>         0.0980
     78 H40         4.5331   -4.0078   -1.6630 H         1 <0>         0.3919
     79 H41         6.1498   -4.9937    1.6684 H         1 <0>         0.4281
@<TRIPOS>BOND
     1    1    2 1
     2    1   41 1
     3    1   42 1
     4    1   43 1
     5    2    3 1
     6    2   44 1
     7    2   45 1
     8    3    4 1
     9    3   46 1
    10    4    9 ar
    11    4    5 ar
    12    5    6 ar
    13    5   47 1
    14    6    7 ar
    15    6   18 1
    16    7    8 ar
    17    7   48 1
    18    8   16 1
    19    8    9 ar
    20    9   10 1
    21   10   11 1
    22   10   49 1
    23   10   50 1
    24   11   12 1
    25   11   51 1
    26   11   52 1
    27   12   13 1
    28   12   53 1
    29   12   54 1
    30   13   14 2
    31   13   15 2
    32   13   16 1
    33   16   17 1
    34   17   55 1
    35   17   56 1
    36   17   57 1
    37   18   19 2
    38   18   20 am
    39   20   21 1
    40   20   58 1
    41   21   22 1
    42   21   23 1
    43   21   30 1
    44   23   24 1
    45   23   59 1
    46   23   60 1
    47   24   29 ar
    48   24   25 ar
    49   25   26 ar
    50   25   61 1
    51   26   27 ar
    52   26   62 1
    53   27   28 ar
    54   27   63 1
    55   28   29 ar
    56   28   64 1
    57   29   65 1
    58   30   31 1
    59   30   32 1
    60   30   40 1
    61   32   33 1
    62   32   66 1
    63   32   67 1
    64   33   34 1
    65   33   68 1
    66   33   79 1
    67   34   39 1
    68   34   35 1
    69   34   69 1
    70   35   36 1
    71   35   70 1
    72   35   71 1
    73   36   37 1
    74   36   72 1
    75   36   73 1
    76   37   38 1
    77   38   39 1
    78   38   74 1
    79   38   75 1
    80   39   76 1
    81   39   77 1
    82   40   78 1
@<TRIPOS>MOLECULE
CHEMBL392662
   46    48     0     0     0
SMALL
USER_CHARGES

@<TRIPOS>ATOM
      1 C1         -0.6398    1.3560   -0.2790 C.3       1 <0>        -0.1604
      2 C2          0.0021   -0.0041    0.0020 C.3       1 <0>         0.2053
      3 C3         -1.0851   -1.0090    0.3885 C.3       1 <0>        -0.1555
      4 C4         -0.4326   -2.2418    0.9654 C.2       1 <0>         0.5249
      5 O1         -0.9115   -3.3384    0.7696 O.2       1 <0>        -0.4321
      6 N1          0.6889   -2.1087    1.7013 N.am      1 <0>        -0.5529
      7 C5          1.2741   -0.8706    1.8560 C.cat     1 <0>         0.7451
      8 N2          0.9666    0.1301    1.0934 N.pl3     1 <0>        -0.6288
      9 N3          2.2095   -0.6927    2.8472 N.pl3     1 <0>        -0.7967
     10 C6          1.2875   -3.2839    2.3390 C.3       1 <0>         0.0417
     11 C7          0.7115   -0.4882   -1.2363 C.ar      1 <0>        -0.1297
     12 C8         -0.0169   -0.8144   -2.3663 C.ar      1 <0>        -0.0957
     13 C9          0.6277   -1.2589   -3.5063 C.ar      1 <0>        -0.0975
     14 C10         2.0027   -1.3800   -3.5220 C.ar      1 <0>        -0.0900
     15 C11         2.7412   -1.0529   -2.3868 C.ar      1 <0>        -0.0267
     16 C12         2.0869   -0.6000   -1.2428 C.ar      1 <0>        -0.1073
     17 C13         4.2195   -1.1814   -2.3976 C.ar      1 <0>        -0.0194
     18 C14         4.9573   -0.8595   -1.2597 C.ar      1 <0>        -0.1521
     19 C15         6.3323   -0.9797   -1.2721 C.ar      1 <0>        -0.0742
     20 C16         6.9813   -1.4187   -2.4112 C.ar      1 <0>        -0.1998
     21 C17         6.2540   -1.7408   -3.5485 C.ar      1 <0>         0.1398
     22 C18         4.8731   -1.6293   -3.5425 C.ar      1 <0>        -0.1395
     23 O2          6.8961   -2.1715   -4.6662 O.3       1 <0>        -0.3138
     24 C19         8.3202   -2.2687   -4.5995 C.3       1 <0>         0.0242
     25 H1          0.1329    2.0709   -0.5620 H         1 <0>         0.0876
     26 H2         -1.3588    1.2574   -1.0923 H         1 <0>         0.1059
     27 H3         -1.1507    1.7088    0.6169 H         1 <0>         0.0856
     28 H4         -1.7454   -0.5637    1.1326 H         1 <0>         0.1386
     29 H5         -1.6611   -1.2812   -0.4960 H         1 <0>         0.1533
     30 H6          2.4495   -1.4331    3.4261 H         1 <0>         0.4424
     31 H7          2.6296    0.1732    2.9679 H         1 <0>         0.4414
     32 H8          0.6911   -4.1664    2.1072 H         1 <0>         0.1274
     33 H9          2.3021   -3.4228    1.9656 H         1 <0>         0.0974
     34 H10         1.3147   -3.1371    3.4187 H         1 <0>         0.0948
     35 H11        -1.0929   -0.7219   -2.3581 H         1 <0>         0.1350
     36 H12         0.0543   -1.5122   -4.3857 H         1 <0>         0.1402
     37 H13         2.5051   -1.7279   -4.4125 H         1 <0>         0.1376
     38 H14         2.6549   -0.3409   -0.3615 H         1 <0>         0.1165
     39 H15         4.4533   -0.5156   -0.3686 H         1 <0>         0.1152
     40 H16         6.9027   -0.7299   -0.3898 H         1 <0>         0.1298
     41 H17         8.0574   -1.5108   -2.4161 H         1 <0>         0.1346
     42 H18         4.3054   -1.8842   -4.4253 H         1 <0>         0.1368
     43 H19         8.7414   -1.2878   -4.3794 H         1 <0>         0.0594
     44 H20         8.6001   -2.9693   -3.8127 H         1 <0>         0.0589
     45 H21         8.7053   -2.6233   -5.5556 H         1 <0>         0.1071
     46 H22         1.3868    0.9903    1.2498 H         1 <0>         0.4455
@<TRIPOS>BOND
     1    1    2 1
     2    1   25 1
     3    1   26 1
     4    1   27 1
     5    2    8 1
     6    2    3 1
     7    2   11 1
     8    3    4 1
     9    3   28 1
    10    3   29 1
    11    4    5 2
    12    4    6 am
    13    6    7 1
    14    6   10 1
    15    7    8 2
    16    7    9 1
    17    8   46 1
    18    9   30 1
    19    9   31 1
    20   10   32 1
    21   10   33 1
    22   10   34 1
    23   11   16 ar
    24   11   12 ar
    25   12   13 ar
    26   12   35 1
    27   13   14 ar
    28   13   36 1
    29   14   15 ar
    30   14   37 1
    31   15   16 ar
    32   15   17 1
    33   16   38 1
    34   17   22 ar
    35   17   18 ar
    36   18   19 ar
    37   18   39 1
    38   19   20 ar
    39   19   40 1
    40   20   21 ar
    41   20   41 1
    42   21   22 ar
    43   21   23 1
    44   22   42 1
    45   23   24 1
    46   24   43 1
    47   24   44 1
    48   24   45 1
@<TRIPOS>MOLECULE
CHEMBL392662__1
   46    48     0     0     0
SMALL
USER_CHARGES

@<TRIPOS>ATOM
      1 C1          0.0018    1.4666    0.4241 C.3       1 <0>        -0.1560
      2 C2          0.0021   -0.0041    0.0020 C.3       1 <0>         0.2206
      3 C3          0.8563   -0.8215    0.9756 C.3       1 <0>        -0.1544
      4 C4          1.1712   -2.1674    0.3859 C.2       1 <0>         0.5270
      5 O1          1.4682   -3.0750    1.1331 O.2       1 <0>        -0.4435
      6 N1          1.1365   -2.4050   -0.9333 N.am      1 <0>        -0.5466
      7 C5          0.7418   -1.4244   -1.8271 C.cat     1 <0>         0.7577
      8 N2          0.5897   -0.1358   -1.3435 N.pl3     1 <0>        -0.7106
      9 N3          0.5220   -1.7039   -3.0795 N.pl3     1 <0>        -0.7299
     10 C6          1.5225   -3.7253   -1.4374 C.3       1 <0>         0.0304
     11 C7         -1.4094   -0.5322   -0.0039 C.ar      1 <0>        -0.1291
     12 C8         -2.0239   -0.8732    1.1877 C.ar      1 <0>        -0.0997
     13 C9         -3.3191   -1.3580    1.1897 C.ar      1 <0>        -0.0973
     14 C10        -4.0057   -1.5046    0.0012 C.ar      1 <0>        -0.0919
     15 C11        -3.3917   -1.1627   -1.2017 C.ar      1 <0>        -0.0286
     16 C12        -2.0884   -0.6693   -1.1973 C.ar      1 <0>        -0.1105
     17 C13        -4.1247   -1.3186   -2.4826 C.ar      1 <0>        -0.0184
     18 C14        -3.5078   -0.9818   -3.6862 C.ar      1 <0>        -0.1547
     19 C15        -4.1915   -1.1275   -4.8764 C.ar      1 <0>        -0.0739
     20 C16        -5.4883   -1.6068   -4.8787 C.ar      1 <0>        -0.2002
     21 C17        -6.1098   -1.9440   -3.6845 C.ar      1 <0>         0.1409
     22 C18        -5.4285   -1.8071   -2.4859 C.ar      1 <0>        -0.1401
     23 O2         -7.3849   -2.4144   -3.6913 O.3       1 <0>        -0.3137
     24 C19        -8.0247   -2.5361   -4.9633 C.3       1 <0>         0.0241
     25 H1          1.0231    1.8473    0.4154 H         1 <0>         0.0846
     26 H2         -0.6072    2.0441   -0.2715 H         1 <0>         0.0847
     27 H3         -0.4108    1.5561    1.4290 H         1 <0>         0.1010
     28 H4          1.7858   -0.2885    1.1757 H         1 <0>         0.1404
     29 H5          0.3099   -0.9575    1.9089 H         1 <0>         0.1459
     30 H6          0.6343   -2.6123   -3.4006 H         1 <0>         0.4468
     31 H7          0.8549    0.6393   -1.8628 H         1 <0>         0.4474
     32 H8          1.8015   -4.3661   -0.6010 H         1 <0>         0.1316
     33 H9          0.6829   -4.1700   -1.9715 H         1 <0>         0.0952
     34 H10         2.3703   -3.6220   -2.1146 H         1 <0>         0.0997
     35 H11        -1.4901   -0.7607    2.1198 H         1 <0>         0.1345
     36 H12        -3.7942   -1.6227    2.1228 H         1 <0>         0.1394
     37 H13        -5.0169   -1.8840    0.0037 H         1 <0>         0.1370
     38 H14        -1.6093   -0.3986   -2.1266 H         1 <0>         0.1182
     39 H15        -2.4951   -0.6064   -3.6876 H         1 <0>         0.1146
     40 H16        -3.7123   -0.8661   -5.8083 H         1 <0>         0.1305
     41 H17        -6.0193   -1.7188   -5.8125 H         1 <0>         0.1347
     42 H18        -5.9092   -2.0736   -1.5563 H         1 <0>         0.1367
     43 H19        -8.0708   -1.5579   -5.4418 H         1 <0>         0.0597
     44 H20        -7.4563   -3.2216   -5.5918 H         1 <0>         0.0590
     45 H21        -9.0350   -2.9216   -4.8264 H         1 <0>         0.1073
     46 H22         0.2460   -1.0038   -3.6915 H         1 <0>         0.4494
@<TRIPOS>BOND
     1    1    2 1
     2    1   25 1
     3    1   26 1
     4    1   27 1
     5    2    3 1
     6    2   11 1
     7    2    8 1
     8    3   28 1
     9    3   29 1
    10    3    4 1
    11    4    6 am
    12    4    5 2
    13    6    7 1
    14    6   10 1
    15    7    8 1
    16    7    9 2
    17    8   31 1
    18    9   30 1
    19    9   46 1
    20   10   32 1
    21   10   33 1
    22   10   34 1
    23   11   16 ar
    24   11   12 ar
    25   12   13 ar
    26   12   35 1
    27   13   14 ar
    28   13   36 1
    29   14   15 ar
    30   14   37 1
    31   15   16 ar
    32   15   17 1
    33   16   38 1
    34   17   22 ar
    35   17   18 ar
    36   18   19 ar
    37   18   39 1
    38   19   20 ar
    39   19   40 1
    40   20   21 ar
    41   20   41 1
    42   21   22 ar
    43   21   23 1
    44   22   42 1
    45   23   24 1
    46   24   43 1
    47   24   44 1
    48   24   45 1
@<TRIPOS>MOLECULE
CHEMBL392662__2
   46    48     0     0     0
SMALL
USER_CHARGES

@<TRIPOS>ATOM
      1 C1          0.9566   -1.1150    0.4444 C.3       1 <0>        -0.1608
      2 C2          0.0021   -0.0041    0.0020 C.3       1 <0>         0.2053
      3 C3          0.1172    1.1787    0.9659 C.3       1 <0>        -0.1563
      4 C4         -0.5736    2.3761    0.3597 C.2       1 <0>         0.5249
      5 O1         -1.1632    3.1667    1.0651 O.2       1 <0>        -0.4318
      6 N1         -0.5266    2.5560   -0.9754 N.am      1 <0>        -0.5534
      7 C5          0.0766    1.6147   -1.7813 C.cat     1 <0>         0.7457
      8 N2          0.3484    0.4229   -1.3535 N.pl3     1 <0>        -0.6276
      9 N3          0.3982    1.9500   -3.0748 N.pl3     1 <0>        -0.7964
     10 C6         -1.1191    3.7558   -1.5717 C.3       1 <0>         0.0422
     11 C7         -1.4123   -0.5239    0.0171 C.ar      1 <0>        -0.1284
     12 C8         -2.1094   -0.6631   -1.1698 C.ar      1 <0>        -0.1178
     13 C9         -3.4076   -1.1400   -1.1633 C.ar      1 <0>        -0.1012
     14 C10        -4.0150   -1.4795    0.0289 C.ar      1 <0>        -0.0911
     15 C11        -3.3176   -1.3414    1.2270 C.ar      1 <0>        -0.0180
     16 C12        -2.0078   -0.8657    1.2141 C.ar      1 <0>        -0.0893
     17 C13        -3.9655   -1.7043    2.5118 C.ar      1 <0>        -0.0250
     18 C14        -3.2693   -1.5605    3.7107 C.ar      1 <0>        -0.1448
     19 C15        -3.8739   -1.8987    4.9045 C.ar      1 <0>        -0.0740
     20 C16        -5.1696   -2.3809    4.9152 C.ar      1 <0>        -0.1972
     21 C17        -5.8695   -2.5274    3.7257 C.ar      1 <0>         0.1351
     22 C18        -5.2725   -2.1840    2.5236 C.ar      1 <0>        -0.1392
     23 O2         -7.1429   -3.0022    3.7408 O.3       1 <0>        -0.3155
     24 C19        -7.6979   -3.3303    5.0160 C.3       1 <0>         0.0246
     25 H1          1.9804   -0.7411    0.4310 H         1 <0>         0.0858
     26 H2          0.6995   -1.4340    1.4545 H         1 <0>         0.1051
     27 H3          0.8699   -1.9613   -0.2370 H         1 <0>         0.0881
     28 H4         -0.3579    0.9245    1.9134 H         1 <0>         0.1520
     29 H5          1.1688    1.4109    1.1343 H         1 <0>         0.1388
     30 H6          0.2003    2.8388   -3.4090 H         1 <0>         0.4423
     31 H7          0.8231    1.2977   -3.6536 H         1 <0>         0.4415
     32 H8         -1.5463    4.3789   -0.7861 H         1 <0>         0.1271
     33 H9         -0.3491    4.3163   -2.1017 H         1 <0>         0.0947
     34 H10        -1.9029    3.4647   -2.2711 H         1 <0>         0.0974
     35 H11        -1.6383   -0.3980   -2.1047 H         1 <0>         0.1130
     36 H12        -3.9472   -1.2467   -2.0927 H         1 <0>         0.1344
     37 H13        -5.0290   -1.8512    0.0329 H         1 <0>         0.1377
     38 H14        -1.4611   -0.7609    2.1396 H         1 <0>         0.1363
     39 H15        -2.2567   -1.1848    3.7055 H         1 <0>         0.1254
     40 H16        -3.3333   -1.7868    5.8327 H         1 <0>         0.1323
     41 H17        -5.6383   -2.6445    5.8518 H         1 <0>         0.1341
     42 H18        -5.8176   -2.2930    1.5977 H         1 <0>         0.1347
     43 H19        -7.0916   -4.1033    5.4882 H         1 <0>         0.0590
     44 H20        -7.7092   -2.4415    5.6469 H         1 <0>         0.0589
     45 H21        -8.7163   -3.6964    4.8858 H         1 <0>         0.1057
     46 H22         0.7932   -0.2024   -1.9469 H         1 <0>         0.4457
@<TRIPOS>BOND
     1    1    2 1
     2    1   25 1
     3    1   26 1
     4    1   27 1
     5    2    8 1
     6    2    3 1
     7    2   11 1
     8    3    4 1
     9    3   28 1
    10    3   29 1
    11    4    5 2
    12    4    6 am
    13    6    7 1
    14    6   10 1
    15    7    8 2
    16    7    9 1
    17    8   46 1
    18    9   30 1
    19    9   31 1
    20   10   32 1
    21   10   33 1
    22   10   34 1
    23   11   16 ar
    24   11   12 ar
    25   12   13 ar
    26   12   35 1
    27   13   14 ar
    28   13   36 1
    29   14   15 ar
    30   14   37 1
    31   15   16 ar
    32   15   17 1
    33   16   38 1
    34   17   22 ar
    35   17   18 ar
    36   18   19 ar
    37   18   39 1
    38   19   20 ar
    39   19   40 1
    40   20   21 ar
    41   20   41 1
    42   21   22 ar
    43   21   23 1
    44   22   42 1
    45   23   24 1
    46   24   43 1
    47   24   44 1
    48   24   45 1
@<TRIPOS>MOLECULE
CHEMBL392662__3
   46    48     0     0     0
SMALL
USER_CHARGES

@<TRIPOS>ATOM
      1 C1         -0.6042   -1.1872    0.7593 C.3       1 <0>        -0.1562
      2 C2          0.0021   -0.0041    0.0020 C.3       1 <0>         0.2207
      3 C3         -1.1014    0.9885   -0.3758 C.3       1 <0>        -0.1551
      4 C4         -0.4996    2.3049   -0.7797 C.2       1 <0>         0.5269
      5 O1         -1.1496    3.0517   -1.4798 O.2       1 <0>        -0.4431
      6 N1          0.7273    2.6870   -0.3967 N.am      1 <0>        -0.5473
      7 C5          1.5383    1.8483    0.3484 C.cat     1 <0>         0.7578
      8 N2          0.9708    0.6958    0.8650 N.pl3     1 <0>        -0.7096
      9 N3          2.7915    2.1333    0.5562 N.pl3     1 <0>        -0.7291
     10 C6          1.2182    4.0149   -0.7736 C.3       1 <0>         0.0307
     11 C7          0.6920   -0.4968   -1.2439 C.ar      1 <0>        -0.1276
     12 C8          2.0698   -0.6183   -1.2680 C.ar      1 <0>        -0.1219
     13 C9          2.7094   -1.0703   -2.4079 C.ar      1 <0>        -0.1026
     14 C10         1.9751   -1.4025   -3.5286 C.ar      1 <0>        -0.0934
     15 C11         0.5873   -1.2821   -3.5099 C.ar      1 <0>        -0.0174
     16 C12        -0.0523   -0.8315   -2.3567 C.ar      1 <0>        -0.0936
     17 C13        -0.2073   -1.6373   -4.7118 C.ar      1 <0>        -0.0261
     18 C14        -1.5952   -1.5112   -4.6943 C.ar      1 <0>        -0.1446
     19 C15        -2.3322   -1.8422   -5.8134 C.ar      1 <0>        -0.0737
     20 C16        -1.6975   -2.2995   -6.9533 C.ar      1 <0>        -0.1969
     21 C17        -0.3159   -2.4283   -6.9788 C.ar      1 <0>         0.1349
     22 C18         0.4321   -2.0920   -5.8621 C.ar      1 <0>        -0.1393
     23 O2          0.3040   -2.8787   -8.1012 O.3       1 <0>        -0.3156
     24 C19        -0.5285   -3.2008   -9.2172 C.3       1 <0>         0.0245
     25 H1         -1.3375   -1.6866    0.1260 H         1 <0>         0.1004
     26 H2          0.1846   -1.8906    1.0259 H         1 <0>         0.0852
     27 H3         -1.0917   -0.8274    1.6654 H         1 <0>         0.0847
     28 H4         -1.6802    0.5859   -1.2071 H         1 <0>         0.1444
     29 H5         -1.7580    1.1418    0.4806 H         1 <0>         0.1404
     30 H6          3.1720    2.9453    0.1864 H         1 <0>         0.4463
     31 H7          1.1984    0.3665    1.7485 H         1 <0>         0.4475
     32 H8          0.4546    4.5335   -1.3534 H         1 <0>         0.1313
     33 H9          1.4431    4.5880    0.1259 H         1 <0>         0.0997
     34 H10         2.1221    3.9112   -1.3739 H         1 <0>         0.0952
     35 H11         2.6482   -0.3588   -0.3937 H         1 <0>         0.1148
     36 H12         3.7853   -1.1632   -2.4213 H         1 <0>         0.1340
     37 H13         2.4756   -1.7547   -4.4185 H         1 <0>         0.1371
     38 H14        -1.1283   -0.7406   -2.3353 H         1 <0>         0.1356
     39 H15        -2.0940   -1.1550   -3.8051 H         1 <0>         0.1252
     40 H16        -3.4076   -1.7441   -5.7985 H         1 <0>         0.1325
     41 H17        -2.2785   -2.5576   -7.8264 H         1 <0>         0.1342
     42 H18         1.5077   -2.1871   -5.8820 H         1 <0>         0.1346
     43 H19        -1.2282   -3.9869   -8.9336 H         1 <0>         0.0593
     44 H20        -1.0831   -2.3142   -9.5246 H         1 <0>         0.0588
     45 H21         0.0910   -3.5468  -10.0446 H         1 <0>         0.1058
     46 H22         3.3447    1.5337    1.0809 H         1 <0>         0.4504
@<TRIPOS>BOND
     1    1    2 1
     2    1   25 1
     3    1   26 1
     4    1   27 1
     5    2    3 1
     6    2   11 1
     7    2    8 1
     8    3   28 1
     9    3   29 1
    10    3    4 1
    11    4    6 am
    12    4    5 2
    13    6    7 1
    14    6   10 1
    15    7    8 1
    16    7    9 2
    17    8   31 1
    18    9   30 1
    19    9   46 1
    20   10   32 1
    21   10   33 1
    22   10   34 1
    23   11   16 ar
    24   11   12 ar
    25   12   13 ar
    26   12   35 1
    27   13   14 ar
    28   13   36 1
    29   14   15 ar
    30   14   37 1
    31   15   16 ar
    32   15   17 1
    33   16   38 1
    34   17   22 ar
    35   17   18 ar
    36   18   19 ar
    37   18   39 1
    38   19   20 ar
    39   19   40 1
    40   20   21 ar
    41   20   41 1
    42   21   22 ar
    43   21   23 1
    44   22   42 1
    45   23   24 1
    46   24   43 1
    47   24   44 1
    48   24   45 1
@<TRIPOS>MOLECULE
CHEMBL559954
   77    81     0     0     0
SMALL
USER_CHARGES

@<TRIPOS>ATOM
      1 C1         -0.0187    1.5258    0.0104 C.3       1 <0>        -0.1491
      2 C2          0.0021   -0.0041    0.0020 C.3       1 <0>        -0.0540
      3 C3          0.7309   -0.5033    1.2229 C.2       1 <0>        -0.1360
      4 C4          2.0340   -0.8365    1.2975 C.2       1 <0>         0.0683
      5 N1          2.3374   -1.2538    2.5623 N.pl3     1 <0>        -0.4938
      6 C5          1.2364   -1.0856    3.3673 C.ar      1 <0>         0.0784
      7 C6          0.1583   -0.7119    2.5541 C.ar      1 <0>        -0.0653
      8 C7         -1.1166   -0.6573    3.1146 C.ar      1 <0>         0.0229
      9 C8         -1.2745   -0.9317    4.4711 C.ar      1 <0>        -0.1577
     10 C9         -0.1671   -1.2162    5.2843 C.ar      1 <0>        -0.0587
     11 C10         1.0988   -1.2490    4.7358 C.ar      1 <0>         0.0734
     12 O1          2.1830   -1.2500    5.5643 O.3       1 <0>        -0.6609
     13 S1          3.1939   -0.1703    5.2195 S.o2      1 <0>         2.5949
     14 O2          2.4089    0.8802    4.6722 O.2       1 <0>        -0.9354
     15 O3          3.9139    0.0319    6.4278 O.2       1 <0>        -0.9202
     16 C11         4.3128   -0.8229    3.9465 C.3       1 <0>        -0.6732
     17 C12         3.5956   -1.8243    3.0504 C.3       1 <0>         0.1243
     18 C13        -2.6276   -0.9224    5.0622 C.2       1 <0>         0.5729
     19 O4         -3.5934   -0.6765    4.3659 O.2       1 <0>        -0.4918
     20 N2         -2.7919   -1.1864    6.3736 N.am      1 <0>        -0.7413
     21 C14        -4.1344   -1.1772    6.9600 C.3       1 <0>         0.1268
     22 H1         -4.7366   -0.4078    6.4769 H         1 <0>         0.1144
     23 C15        -4.7908   -2.5436    6.7528 C.3       1 <0>        -0.0853
     24 C16        -5.0009   -2.7817    5.2797 C.ar      1 <0>        -0.0786
     25 C17        -6.1763   -2.3773    4.6749 C.ar      1 <0>        -0.1057
     26 C18        -6.3691   -2.5957    3.3236 C.ar      1 <0>        -0.1108
     27 C19        -5.3862   -3.2182    2.5770 C.ar      1 <0>        -0.1125
     28 C20        -4.2105   -3.6218    3.1816 C.ar      1 <0>        -0.1113
     29 C21        -4.0160   -3.3995    4.5320 C.ar      1 <0>        -0.1088
     30 C22        -4.0346   -0.8812    8.4578 C.3       1 <0>         0.0773
     31 H2         -5.0334   -0.8743    8.8941 H         1 <0>         0.1426
     32 C23        -3.3781    0.4852    8.6650 C.3       1 <0>        -0.0504
     33 N3         -3.2823    0.7694   10.1030 N.4       1 <0>        -0.5051
     34 C24        -2.6521    2.0813   10.3020 C.3       1 <0>        -0.0063
     35 C25        -2.5523    2.3773   11.7998 C.3       1 <0>        -0.1172
     36 C26        -3.9591    2.5219   12.3884 C.3       1 <0>        -0.1684
     37 C27        -3.8484    2.8953   13.8689 C.3       1 <0>         0.0588
     38 O5         -3.0970    4.1039   13.9991 O.3       1 <0>        -0.3729
     39 C28        -1.7578    4.0139   13.5085 C.3       1 <0>         0.0567
     40 C29        -1.7844    3.6854   12.0135 C.3       1 <0>        -0.1496
     41 O6         -3.2450   -1.8899    9.0911 O.3       1 <0>        -0.5439
     42 H3          1.0039    1.9031    0.0027 H         1 <0>         0.0558
     43 H4         -0.5459    1.8868   -0.8726 H         1 <0>         0.0615
     44 H5         -0.5289    1.8773    0.9072 H         1 <0>         0.0555
     45 H6         -1.0205   -0.3814    0.0098 H         1 <0>         0.0768
     46 H7          0.5123   -0.3556   -0.8948 H         1 <0>         0.0774
     47 H8          2.7355   -0.7819    0.4781 H         1 <0>         0.1828
     48 H9         -1.9715   -0.4051    2.5047 H         1 <0>         0.1517
     49 H10        -0.3062   -1.4154    6.3366 H         1 <0>         0.1393
     50 H11         4.6820    0.0022    3.3374 H         1 <0>         0.1541
     51 H12         5.1565   -1.3153    4.4300 H         1 <0>         0.1630
     52 H13         3.3852   -2.7309    3.6178 H         1 <0>         0.1084
     53 H14         4.2336   -2.0714    2.2019 H         1 <0>         0.1281
     54 H15        -2.0213   -1.3825    6.9291 H         1 <0>         0.3907
     55 H16        -4.1448   -3.3223    7.1582 H         1 <0>         0.0845
     56 H17        -5.7526   -2.5661    7.2653 H         1 <0>         0.0858
     57 H18        -6.9442   -1.8910    5.2582 H         1 <0>         0.1142
     58 H19        -7.2877   -2.2804    2.8512 H         1 <0>         0.1193
     59 H20        -5.5371   -3.3895    1.5214 H         1 <0>         0.1192
     60 H21        -3.4427   -4.1085    2.5983 H         1 <0>         0.1162
     61 H22        -3.0958   -3.7115    5.0036 H         1 <0>         0.1088
     62 H23        -2.3793    0.4784    8.2287 H         1 <0>         0.1367
     63 H24        -3.9804    1.2546    8.1819 H         1 <0>         0.1489
     64 H25        -4.2070    0.7758   10.5070 H         1 <0>         0.4279
     65 H26        -1.6532    2.0745    9.8656 H         1 <0>         0.1357
     66 H27        -3.2543    2.8508    9.8189 H         1 <0>         0.1356
     67 H28        -2.0289    1.5616   12.2986 H         1 <0>         0.0977
     68 H29        -4.4986    3.3043   11.8547 H         1 <0>         0.0890
     69 H30        -4.4939    1.5772   12.2900 H         1 <0>         0.0712
     70 H31        -4.8463    3.0414   14.2825 H         1 <0>         0.1050
     71 H32        -3.3445    2.0940   14.4093 H         1 <0>         0.0575
     72 H33        -1.2496    4.9658   13.6625 H         1 <0>         0.1070
     73 H34        -1.2265    3.2272   14.0442 H         1 <0>         0.0578
     74 H35        -0.7641    3.5729   11.6471 H         1 <0>         0.0880
     75 H36        -2.2800    4.4913   11.4723 H         1 <0>         0.0853
     76 H37        -2.3417   -1.9530    8.7519 H         1 <0>         0.3846
     77 H38        -2.7249    0.0572   10.5502 H         1 <0>         0.4314
@<TRIPOS>BOND
     1    1    2 1
     2    1   42 1
     3    1   43 1
     4    1   44 1
     5    2    3 1
     6    2   45 1
     7    2   46 1
     8    3    7 1
     9    3    4 2
    10    4    5 1
    11    4   47 1
    12    5   17 1
    13    5    6 1
    14    6   11 ar
    15    6    7 ar
    16    7    8 ar
    17    8    9 ar
    18    8   48 1
    19    9   10 ar
    20    9   18 1
    21   10   11 ar
    22   10   49 1
    23   11   12 1
    24   12   13 1
    25   13   14 2
    26   13   15 2
    27   13   16 1
    28   16   17 1
    29   16   50 1
    30   16   51 1
    31   17   52 1
    32   17   53 1
    33   18   19 2
    34   18   20 am
    35   20   21 1
    36   20   54 1
    37   21   22 1
    38   21   23 1
    39   21   30 1
    40   23   24 1
    41   23   55 1
    42   23   56 1
    43   24   29 ar
    44   24   25 ar
    45   25   26 ar
    46   25   57 1
    47   26   27 ar
    48   26   58 1
    49   27   28 ar
    50   27   59 1
    51   28   29 ar
    52   28   60 1
    53   29   61 1
    54   30   31 1
    55   30   32 1
    56   30   41 1
    57   32   33 1
    58   32   62 1
    59   32   63 1
    60   33   34 1
    61   33   64 1
    62   33   77 1
    63   34   35 1
    64   34   65 1
    65   34   66 1
    66   35   40 1
    67   35   36 1
    68   35   67 1
    69   36   37 1
    70   36   68 1
    71   36   69 1
    72   37   38 1
    73   37   70 1
    74   37   71 1
    75   38   39 1
    76   39   40 1
    77   39   72 1
    78   39   73 1
    79   40   74 1
    80   40   75 1
    81   41   76 1
@<TRIPOS>MOLECULE
CHEMBL1097361
   89    88     0     0     0
SMALL
USER_CHARGES

@<TRIPOS>ATOM
      1 C1         -2.3961    2.3547    2.0301 C.3       1 <0>        -0.1534
      2 C2         -2.3234    0.9220    2.5620 C.3       1 <0>        -0.1222
      3 C3         -1.1120    0.2128    1.9534 C.3       1 <0>        -0.1324
      4 C4         -1.0393   -1.2199    2.4852 C.3       1 <0>         0.1169
      5 N1          0.1207   -1.8989    1.9025 N.am      1 <0>        -0.7311
      6 C5          0.3863   -3.1793    2.2290 C.2       1 <0>         0.5177
      7 O1         -0.3350   -3.7693    3.0052 O.2       1 <0>        -0.5370
      8 C6          1.5795   -3.8777    1.6295 C.3       1 <0>        -0.1097
      9 H1          2.4889   -3.3423    1.9024 H         1 <0>         0.1059
     10 C7          1.4419   -3.9057    0.1060 C.3       1 <0>        -0.1455
     11 C8          1.6522   -5.3105    2.1614 C.3       1 <0>        -0.1309
     12 C9          1.9625   -5.2833    3.6593 C.3       1 <0>         0.0927
     13 H2          1.2275   -4.6623    4.1714 H         1 <0>         0.1331
     14 C10         1.9056   -6.7065    4.2179 C.3       1 <0>         0.1124
     15 H3          0.9089   -7.1189    4.0607 H         1 <0>         0.1062
     16 C11         2.2159   -6.6793    5.7158 C.3       1 <0>        -0.1201
     17 C12         1.1075   -5.9246    6.4526 C.3       1 <0>        -0.0930
     18 C13        -0.2028   -6.7067    6.3417 C.3       1 <0>        -0.1485
     19 C14         1.4873   -5.7723    7.9269 C.3       1 <0>        -0.1460
     20 N2          2.8935   -7.5411    3.5296 N.am      1 <0>        -0.7204
     21 C15         2.6889   -8.8679    3.4104 C.2       1 <0>         0.5184
     22 O2          1.6464   -9.3573    3.7907 O.2       1 <0>        -0.5233
     23 C16         3.7554   -9.7434    2.8046 C.3       1 <0>         0.1347
     24 H4          4.6665   -9.6697    3.3983 H         1 <0>         0.1180
     25 C17         4.0407   -9.2833    1.3735 C.3       1 <0>        -0.1090
     26 C18         5.2084  -10.0899    0.8018 C.3       1 <0>        -0.0712
     27 S1          5.5467   -9.5445   -0.8949 S.3       1 <0>        -0.2770
     28 C19         6.9372  -10.5838   -1.4210 C.3       1 <0>        -0.1143
     29 N3          3.2946  -11.1339    2.7878 N.am      1 <0>        -0.7144
     30 C20         4.1905  -12.1407    2.7804 C.2       1 <0>         0.5054
     31 O3          5.3782  -11.8956    2.7876 O.2       1 <0>        -0.5032
     32 C21         3.7164  -13.5711    2.7631 C.3       1 <0>         0.1365
     33 H5          2.8574  -13.6611    2.0982 H         1 <0>         0.1094
     34 C22         3.3127  -13.9917    4.1777 C.3       1 <0>        -0.1287
     35 C23         2.7401  -15.4101    4.1442 C.3       1 <0>        -0.0907
     36 C24         2.4664  -15.8835    5.5731 C.3       1 <0>        -0.1479
     37 C25         1.4344  -15.4142    3.3467 C.3       1 <0>        -0.1523
     38 N4          4.7966  -14.4379    2.2855 N.am      1 <0>        -0.7222
     39 C26         5.9648  -14.4901    2.9555 C.2       1 <0>         0.5168
     40 O4          6.1219  -13.8196    3.9538 O.2       1 <0>        -0.5134
     41 C27         7.0760  -15.3817    2.4641 C.3       1 <0>        -0.1703
     42 O5          3.2691   -4.7426    3.8653 O.3       1 <0>        -0.5516
     43 H6         -2.4942    2.3348    0.9447 H         1 <0>         0.0545
     44 H7         -3.2592    2.8599    2.4637 H         1 <0>         0.0568
     45 H8         -1.4867    2.8901    2.3030 H         1 <0>         0.0547
     46 H9         -2.2254    0.9419    3.6474 H         1 <0>         0.0655
     47 H10        -3.2328    0.3865    2.2891 H         1 <0>         0.0652
     48 H11        -1.2101    0.1929    0.8680 H         1 <0>         0.0688
     49 H12        -0.2026    0.7483    2.2262 H         1 <0>         0.0693
     50 H13        -0.9413   -1.2000    3.5706 H         1 <0>         0.0678
     51 H14        -1.9487   -1.7553    2.2123 H         1 <0>         0.0674
     52 H15         0.6975   -1.4270    1.2817 H         1 <0>         0.4003
     53 H16         2.3431   -4.3343   -0.3325 H         1 <0>         0.0699
     54 H17         0.5795   -4.5126   -0.1699 H         1 <0>         0.0615
     55 H18         1.3049   -2.8900   -0.2652 H         1 <0>         0.0604
     56 H19         0.6962   -5.8078    1.9973 H         1 <0>         0.0833
     57 H20         2.4388   -5.8532    1.6372 H         1 <0>         0.0730
     58 H21         2.2734   -7.7002    6.0936 H         1 <0>         0.0651
     59 H22         3.1690   -6.1768    5.8804 H         1 <0>         0.0725
     60 H23         0.9809   -4.9383    6.0063 H         1 <0>         0.0736
     61 H24        -0.0975   -7.6658    6.8487 H         1 <0>         0.0533
     62 H25        -1.0069   -6.1363    6.8067 H         1 <0>         0.0536
     63 H26        -0.4375   -6.8751    5.2907 H         1 <0>         0.0568
     64 H27         2.4208   -5.2151    8.0060 H         1 <0>         0.0541
     65 H28         0.6977   -5.2346    8.4518 H         1 <0>         0.0550
     66 H29         1.6139   -6.7586    8.3733 H         1 <0>         0.0529
     67 H30         3.6948   -7.1388    3.1597 H         1 <0>         0.3961
     68 H31         3.1549   -9.4402    0.7580 H         1 <0>         0.0828
     69 H32         4.2979   -8.2241    1.3768 H         1 <0>         0.0840
     70 H33         6.0942   -9.9330    1.4172 H         1 <0>         0.0888
     71 H34         4.9512  -11.1491    0.7985 H         1 <0>         0.0851
     72 H35         7.2168  -10.3267   -2.4427 H         1 <0>         0.1016
     73 H36         7.7867  -10.4166   -0.7588 H         1 <0>         0.0767
     74 H37         6.6437  -11.6327   -1.3776 H         1 <0>         0.0746
     75 H38         2.3446  -11.3299    2.7820 H         1 <0>         0.4100
     76 H39         4.1877  -13.9684    4.8273 H         1 <0>         0.0935
     77 H40         2.5581  -13.3041    4.5598 H         1 <0>         0.0757
     78 H41         3.4573  -16.0804    3.6705 H         1 <0>         0.0710
     79 H42         2.1407  -16.9235    5.5552 H         1 <0>         0.0557
     80 H43         3.3778  -15.7983    6.1649 H         1 <0>         0.0549
     81 H44         1.6858  -15.2659    6.0173 H         1 <0>         0.0557
     82 H45         1.6293  -15.0770    2.3287 H         1 <0>         0.0527
     83 H46         1.0264  -16.4247    3.3228 H         1 <0>         0.0568
     84 H47         0.7172  -14.7440    3.8204 H         1 <0>         0.0578
     85 H48         4.6710  -14.9741    1.4870 H         1 <0>         0.4038
     86 H49         6.7528  -15.9017    1.5623 H         1 <0>         0.0725
     87 H50         7.9547  -14.7771    2.2397 H         1 <0>         0.0931
     88 H51         7.3242  -16.1113    3.2350 H         1 <0>         0.0930
     89 H52         3.9750   -5.2458    3.4368 H         1 <0>         0.3645
@<TRIPOS>BOND
     1    1    2 1
     2    1   43 1
     3    1   44 1
     4    1   45 1
     5    2    3 1
     6    2   46 1
     7    2   47 1
     8    3    4 1
     9    3   48 1
    10    3   49 1
    11    4    5 1
    12    4   50 1
    13    4   51 1
    14    5    6 am
    15    5   52 1
    16    6    7 2
    17    6    8 1
    18    8    9 1
    19    8   10 1
    20    8   11 1
    21   10   53 1
    22   10   54 1
    23   10   55 1
    24   11   12 1
    25   11   56 1
    26   11   57 1
    27   12   13 1
    28   12   14 1
    29   12   42 1
    30   14   15 1
    31   14   16 1
    32   14   20 1
    33   16   17 1
    34   16   58 1
    35   16   59 1
    36   17   18 1
    37   17   19 1
    38   17   60 1
    39   18   61 1
    40   18   62 1
    41   18   63 1
    42   19   64 1
    43   19   65 1
    44   19   66 1
    45   20   21 am
    46   20   67 1
    47   21   22 2
    48   21   23 1
    49   23   24 1
    50   23   25 1
    51   23   29 1
    52   25   26 1
    53   25   68 1
    54   25   69 1
    55   26   27 1
    56   26   70 1
    57   26   71 1
    58   27   28 1
    59   28   72 1
    60   28   73 1
    61   28   74 1
    62   29   30 am
    63   29   75 1
    64   30   31 2
    65   30   32 1
    66   32   33 1
    67   32   34 1
    68   32   38 1
    69   34   35 1
    70   34   76 1
    71   34   77 1
    72   35   36 1
    73   35   37 1
    74   35   78 1
    75   36   79 1
    76   36   80 1
    77   36   81 1
    78   37   82 1
    79   37   83 1
    80   37   84 1
    81   38   39 am
    82   38   85 1
    83   39   40 2
    84   39   41 1
    85   41   86 1
    86   41   87 1
    87   41   88 1
    88   42   89 1
@<TRIPOS>MOLECULE
CHEMBL239046
   77    81     0     0     0
SMALL
USER_CHARGES

@<TRIPOS>ATOM
      1 C1         -0.7408   -2.4475    0.9308 C.3       1 <0>        -0.1870
      2 C2          0.7026   -1.9511    1.0378 C.3       1 <0>        -0.0186
      3 N1          0.7146   -0.4824    1.0640 N.4       1 <0>        -0.3823
      4 C3          2.1030   -0.0035    1.0313 C.3       1 <0>         0.0388
      5 C4          2.7348   -0.3839   -0.2829 C.ar      1 <0>        -0.1577
      6 C5          3.3878   -1.5956   -0.4107 C.ar      1 <0>        -0.0988
      7 C6          3.9674   -1.9446   -1.6162 C.ar      1 <0>        -0.1131
      8 C7          3.8935   -1.0821   -2.6940 C.ar      1 <0>        -0.0850
      9 C8          3.2397    0.1291   -2.5664 C.ar      1 <0>        -0.1125
     10 C9          2.6564    0.4762   -1.3622 C.ar      1 <0>        -0.0935
     11 C10         0.0622   -0.0092    2.2922 C.3       1 <0>         0.0387
     12 C11        -0.0524    1.4929    2.2534 C.ar      1 <0>        -0.1544
     13 C12         0.9091    2.2733    2.8703 C.ar      1 <0>        -0.0895
     14 C13         0.8096    3.6492    2.8382 C.ar      1 <0>        -0.0930
     15 C14        -0.2628    4.2528    2.1822 C.ar      1 <0>         0.0088
     16 C15        -1.2289    3.4608    1.5623 C.ar      1 <0>        -0.0936
     17 C16        -1.1155    2.0860    1.5963 C.ar      1 <0>        -0.0919
     18 C17        -0.3757    5.7297    2.1446 C.2       1 <0>        -0.1865
     19 C18        -0.2920    6.4235    0.9610 C.2       1 <0>         0.0174
     20 C19        -0.4152    7.8821    1.0236 C.ar      1 <0>        -0.1163
     21 C20        -0.6081    8.6361   -0.1396 C.ar      1 <0>        -0.0900
     22 C21        -0.7236   10.0090   -0.0503 C.ar      1 <0>         0.1179
     23 C22        -0.6495   10.6410    1.1882 C.ar      1 <0>        -0.1495
     24 C23        -0.4587    9.9077    2.3403 C.ar      1 <0>        -0.0843
     25 C24        -0.3384    8.5270    2.2719 C.ar      1 <0>         0.0997
     26 O1         -0.1441    7.7933    3.3950 O.3       1 <0>        -0.2718
     27 C25        -0.5884    6.5138    3.3732 C.2       1 <0>         0.5198
     28 O2         -1.1430    6.0244    4.3399 O.2       1 <0>        -0.4269
     29 O3         -0.9101   10.7472   -1.1766 O.3       1 <0>        -0.3067
     30 C26        -1.0217   12.1625   -1.0137 C.3       1 <0>         0.0421
     31 C27        -1.2262   12.8187   -2.3806 C.3       1 <0>         0.1223
     32 N2         -2.5105   12.3906   -2.9406 N.am      1 <0>        -0.7250
     33 C28        -2.9050   12.8452   -4.1464 C.2       1 <0>         0.5482
     34 O4         -2.1943   13.6113   -4.7702 O.2       1 <0>        -0.5363
     35 C29        -4.1887   12.4173   -4.7061 C.2       1 <0>        -0.2000
     36 C30        -4.5832   12.8720   -5.9123 C.2       1 <0>        -0.0190
     37 C31        -5.8738   12.4418   -6.4749 C.ar      1 <0>        -0.0167
     38 C32        -6.6952   11.5663   -5.7585 C.ar      1 <0>        -0.1514
     39 C33        -7.9049   11.1666   -6.2922 C.ar      1 <0>         0.1332
     40 C34        -8.3047   11.6310   -7.5351 C.ar      1 <0>        -0.1823
     41 C35        -7.4951   12.4987   -8.2507 C.ar      1 <0>         0.1354
     42 C36        -6.2860   12.9116   -7.7256 C.ar      1 <0>        -0.1404
     43 F1         -7.8918   12.9462   -9.4621 F         1 <0>        -0.1246
     44 F2         -8.6999   10.3205   -5.6012 F         1 <0>        -0.1272
     45 H1         -1.2202   -1.9871    0.0670 H         1 <0>         0.0789
     46 H2         -0.7446   -3.5312    0.8139 H         1 <0>         0.1061
     47 H3         -1.2857   -2.1777    1.8355 H         1 <0>         0.0810
     48 H4          1.1517   -2.3346    1.9539 H         1 <0>         0.1301
     49 H5          1.2727   -2.3039    0.1783 H         1 <0>         0.1325
     50 H6          2.1159    1.0810    1.1402 H         1 <0>         0.1368
     51 H7          2.6633   -0.4574    1.8487 H         1 <0>         0.1351
     52 H8          3.4456   -2.2694    0.4313 H         1 <0>         0.1310
     53 H9          4.4782   -2.8909   -1.7159 H         1 <0>         0.1361
     54 H10         4.3469   -1.3545   -3.6356 H         1 <0>         0.1357
     55 H11         3.1822    0.8031   -3.4084 H         1 <0>         0.1356
     56 H12         2.1424    1.4209   -1.2636 H         1 <0>         0.1296
     57 H13        -0.9329   -0.4477    2.3671 H         1 <0>         0.1410
     58 H14         0.6561   -0.3062    3.1566 H         1 <0>         0.1374
     59 H15         1.7390    1.8047    3.3782 H         1 <0>         0.1367
     60 H16         1.5606    4.2574    3.3204 H         1 <0>         0.1365
     61 H17        -2.0618    3.9226    1.0531 H         1 <0>         0.1389
     62 H18        -1.8605    1.4717    1.1126 H         1 <0>         0.1354
     63 H19        -0.1409    5.9133    0.0212 H         1 <0>         0.1578
     64 H20        -0.6658    8.1472   -1.1009 H         1 <0>         0.1492
     65 H21        -0.7418   11.7155    1.2470 H         1 <0>         0.1487
     66 H22        -0.4026   10.4079    3.2958 H         1 <0>         0.1513
     67 H23        -1.8728   12.3883   -0.3713 H         1 <0>         0.0767
     68 H24        -0.1099   12.5488   -0.5580 H         1 <0>         0.0876
     69 H25        -1.2224   13.9028   -2.2674 H         1 <0>         0.0967
     70 H26        -0.4201   12.5206   -3.0510 H         1 <0>         0.0843
     71 H27        -3.0769   11.7799   -2.4434 H         1 <0>         0.4048
     72 H28        -4.8193   11.7374   -4.1526 H         1 <0>         0.1325
     73 H29        -3.9526   13.5519   -6.4658 H         1 <0>         0.1465
     74 H30        -6.3845   11.2030   -4.7900 H         1 <0>         0.1471
     75 H31        -9.2513   11.3151   -7.9481 H         1 <0>         0.1532
     76 H32        -5.6582   13.5916   -8.2822 H         1 <0>         0.1516
     77 H33         0.2174   -0.1276    0.2609 H         1 <0>         0.4210
@<TRIPOS>BOND
     1    1    2 1
     2    1   45 1
     3    1   46 1
     4    1   47 1
     5    2    3 1
     6    2   48 1
     7    2   49 1
     8    3    4 1
     9    3   11 1
    10    3   77 1
    11    4    5 1
    12    4   50 1
    13    4   51 1
    14    5   10 ar
    15    5    6 ar
    16    6    7 ar
    17    6   52 1
    18    7    8 ar
    19    7   53 1
    20    8    9 ar
    21    8   54 1
    22    9   10 ar
    23    9   55 1
    24   10   56 1
    25   11   12 1
    26   11   57 1
    27   11   58 1
    28   12   17 ar
    29   12   13 ar
    30   13   14 ar
    31   13   59 1
    32   14   15 ar
    33   14   60 1
    34   15   16 ar
    35   15   18 1
    36   16   17 ar
    37   16   61 1
    38   17   62 1
    39   18   27 1
    40   18   19 2
    41   19   20 1
    42   19   63 1
    43   20   25 ar
    44   20   21 ar
    45   21   22 ar
    46   21   64 1
    47   22   23 ar
    48   22   29 1
    49   23   24 ar
    50   23   65 1
    51   24   25 ar
    52   24   66 1
    53   25   26 1
    54   26   27 1
    55   27   28 2
    56   29   30 1
    57   30   31 1
    58   30   67 1
    59   30   68 1
    60   31   32 1
    61   31   69 1
    62   31   70 1
    63   32   33 am
    64   32   71 1
    65   33   34 2
    66   33   35 1
    67   35   36 2
    68   35   72 1
    69   36   37 1
    70   36   73 1
    71   37   42 ar
    72   37   38 ar
    73   38   39 ar
    74   38   74 1
    75   39   40 ar
    76   39   44 1
    77   40   41 ar
    78   40   75 1
    79   41   42 ar
    80   41   43 1
    81   42   76 1
@<TRIPOS>MOLECULE
CHEMBL559355
   78    82     0     0     0
SMALL
USER_CHARGES

@<TRIPOS>ATOM
      1 C1         -0.0187    1.5258    0.0104 C.3       1 <0>        -0.1728
      2 C2          0.0021   -0.0041    0.0020 C.3       1 <0>         0.1032
      3 N1         -1.3723   -0.5112    0.0124 N.pl3     1 <0>        -0.4713
      4 C3         -2.0690   -0.8761    1.1360 C.2       1 <0>         0.0829
      5 C4         -3.3197   -1.2562    0.7971 C.2       1 <0>        -0.1905
      6 C5         -3.4179   -1.0743   -0.6262 C.ar      1 <0>        -0.0949
      7 C6         -2.1596   -0.6869   -1.1045 C.ar      1 <0>         0.1003
      8 C7         -1.9717   -0.5897   -2.4749 C.ar      1 <0>        -0.0773
      9 C8         -3.0488   -0.7753   -3.3410 C.ar      1 <0>        -0.1096
     10 C9         -4.3384   -1.0350   -2.8447 C.ar      1 <0>        -0.0699
     11 C10        -4.5310   -1.1494   -1.4973 C.ar      1 <0>         0.1762
     12 N2         -5.7827   -1.2682   -0.8874 N.pl3     1 <0>        -0.9524
     13 S1         -6.2155   -2.6416   -0.1224 S.o2      1 <0>         2.6192
     14 O1         -7.4426   -2.3064    0.5107 O.2       1 <0>        -0.9531
     15 O2         -6.1949   -3.6239   -1.1490 O.2       1 <0>        -0.9530
     16 C11        -4.9903   -3.0693    1.1355 C.3       1 <0>        -0.6333
     17 C12        -4.3519   -1.8122    1.7594 C.3       1 <0>        -0.0165
     18 C13        -6.7196   -0.1429   -0.9364 C.3       1 <0>         0.0864
     19 C14        -2.8319   -0.6985   -4.7990 C.2       1 <0>         0.5680
     20 O3         -3.7651   -0.8590   -5.5618 O.2       1 <0>        -0.4984
     21 N3         -1.5994   -0.4505   -5.2848 N.am      1 <0>        -0.7266
     22 C15        -1.3841   -0.3742   -6.7319 C.3       1 <0>         0.1278
     23 H1         -2.0372   -1.0876   -7.2345 H         1 <0>         0.1106
     24 C16        -1.7018    1.0403   -7.2209 C.3       1 <0>        -0.1010
     25 C17        -3.1683    1.3236   -7.0206 C.ar      1 <0>        -0.0800
     26 C18        -4.0740    1.0183   -8.0193 C.ar      1 <0>        -0.1066
     27 C19        -5.4192    1.2781   -7.8355 C.ar      1 <0>        -0.1104
     28 C20        -5.8588    1.8429   -6.6528 C.ar      1 <0>        -0.1092
     29 C21        -4.9532    2.1473   -5.6537 C.ar      1 <0>        -0.1081
     30 C22        -3.6085    1.8835   -5.8358 C.ar      1 <0>        -0.1052
     31 C23         0.0751   -0.7077   -7.0487 C.3       1 <0>         0.0760
     32 H2          0.3266   -1.6788   -6.6224 H         1 <0>         0.1338
     33 C24         0.2708   -0.7504   -8.5655 C.3       1 <0>        -0.0505
     34 N4          1.6398   -1.1870   -8.8705 N.4       1 <0>        -0.5008
     35 C25         1.8277   -1.2280  -10.3269 C.3       1 <0>         0.0230
     36 C26         0.9250   -2.3088  -10.9298 C.3       1 <0>        -0.1806
     37 C27         1.1850   -2.3980  -12.4359 C.3       1 <0>         0.0618
     38 O4          2.5673   -2.6800  -12.6634 O.3       1 <0>        -0.3674
     39 C28         3.4569   -1.6799  -12.1630 C.3       1 <0>         0.0620
     40 C29         3.2882   -1.5618  -10.6459 C.3       1 <0>        -0.1791
     41 O5          0.9254    0.2939   -6.4867 O.3       1 <0>        -0.5503
     42 H3          1.0039    1.9031    0.0027 H         1 <0>         0.0782
     43 H4         -0.5459    1.8868   -0.8726 H         1 <0>         0.0618
     44 H5         -0.5289    1.8773    0.9072 H         1 <0>         0.0662
     45 H6          0.5123   -0.3556   -0.8948 H         1 <0>         0.0870
     46 H7          0.5293   -0.3651    0.8851 H         1 <0>         0.0964
     47 H8         -1.6760   -0.8614    2.1419 H         1 <0>         0.1779
     48 H9         -0.9914   -0.3701   -2.8714 H         1 <0>         0.1241
     49 H10        -5.1696   -1.1488   -3.5248 H         1 <0>         0.1463
     50 H11        -5.4746   -3.6497    1.9208 H         1 <0>         0.1458
     51 H12        -4.2080   -3.6754    0.6784 H         1 <0>         0.1365
     52 H13        -3.8689   -2.0765    2.7001 H         1 <0>         0.0989
     53 H14        -5.1227   -1.0632    1.9407 H         1 <0>         0.0854
     54 H15        -7.3445   -0.2289   -1.8254 H         1 <0>         0.0648
     55 H16        -7.3494   -0.1555   -0.0469 H         1 <0>         0.0971
     56 H17        -6.1618    0.7928   -0.9735 H         1 <0>         0.0761
     57 H18        -0.8550   -0.3224   -4.6763 H         1 <0>         0.4041
     58 H19        -1.1118    1.7614   -6.6552 H         1 <0>         0.0813
     59 H20        -1.4573    1.1220   -8.2800 H         1 <0>         0.0781
     60 H21        -3.7305    0.5771   -8.9433 H         1 <0>         0.1112
     61 H22        -6.1267    1.0403   -8.6161 H         1 <0>         0.1198
     62 H23        -6.9097    2.0465   -6.5095 H         1 <0>         0.1207
     63 H24        -5.2966    2.5889   -4.7299 H         1 <0>         0.1180
     64 H25        -2.9015    2.1179   -5.0538 H         1 <0>         0.1097
     65 H26        -0.4402   -1.4506   -9.0040 H         1 <0>         0.1482
     66 H27         0.1053    0.2435   -8.9813 H         1 <0>         0.1422
     67 H28         2.2979   -0.5388   -8.4646 H         1 <0>         0.4330
     68 H29         1.5734   -0.2583  -10.7548 H         1 <0>         0.1420
     69 H30         1.1461   -3.2693  -10.4645 H         1 <0>         0.0986
     70 H31        -0.1194   -2.0502  -10.7551 H         1 <0>         0.1004
     71 H32         0.5763   -3.1948  -12.8632 H         1 <0>         0.1174
     72 H33         0.9252   -1.4497  -12.9064 H         1 <0>         0.0666
     73 H34         4.4849   -1.9594  -12.3937 H         1 <0>         0.1176
     74 H35         3.2268   -0.7222  -12.6299 H         1 <0>         0.0666
     75 H36         3.9339   -0.7690  -10.2683 H         1 <0>         0.1018
     76 H37         3.5571   -2.5072  -10.1749 H         1 <0>         0.0980
     77 H38         0.7574    1.1854   -6.8213 H         1 <0>         0.3917
     78 H39         1.7930   -2.1071   -8.4856 H         1 <0>         0.4283
@<TRIPOS>BOND
     1    1    2 1
     2    1   42 1
     3    1   43 1
     4    1   44 1
     5    2    3 1
     6    2   45 1
     7    2   46 1
     8    3    7 1
     9    3    4 1
    10    4    5 2
    11    4   47 1
    12    5   17 1
    13    5    6 1
    14    6   11 ar
    15    6    7 ar
    16    7    8 ar
    17    8    9 ar
    18    8   48 1
    19    9   10 ar
    20    9   19 1
    21   10   11 ar
    22   10   49 1
    23   11   12 1
    24   12   13 1
    25   12   18 1
    26   13   14 2
    27   13   15 2
    28   13   16 1
    29   16   17 1
    30   16   50 1
    31   16   51 1
    32   17   52 1
    33   17   53 1
    34   18   54 1
    35   18   55 1
    36   18   56 1
    37   19   20 2
    38   19   21 am
    39   21   22 1
    40   21   57 1
    41   22   23 1
    42   22   24 1
    43   22   31 1
    44   24   25 1
    45   24   58 1
    46   24   59 1
    47   25   30 ar
    48   25   26 ar
    49   26   27 ar
    50   26   60 1
    51   27   28 ar
    52   27   61 1
    53   28   29 ar
    54   28   62 1
    55   29   30 ar
    56   29   63 1
    57   30   64 1
    58   31   32 1
    59   31   33 1
    60   31   41 1
    61   33   34 1
    62   33   65 1
    63   33   66 1
    64   34   35 1
    65   34   67 1
    66   34   78 1
    67   35   40 1
    68   35   36 1
    69   35   68 1
    70   36   37 1
    71   36   69 1
    72   36   70 1
    73   37   38 1
    74   37   71 1
    75   37   72 1
    76   38   39 1
    77   39   40 1
    78   39   73 1
    79   39   74 1
    80   40   75 1
    81   40   76 1
    82   41   77 1
@<TRIPOS>MOLECULE
CHEMBL253060
   78    82     0     0     0
SMALL
USER_CHARGES

@<TRIPOS>ATOM
      1 C1         -0.0229    1.7828    0.1124 C.3       1 <0>        -0.1680
      2 C2          0.0005    0.2546    0.0425 C.3       1 <0>         0.1216
      3 N1         -1.3727   -0.2528   -0.0143 N.pl3     1 <0>        -0.7460
      4 C3         -1.6069   -1.6283   -0.0835 C.ar      1 <0>         0.2384
      5 C4         -0.5387   -2.5135   -0.0925 C.ar      1 <0>        -0.1947
      6 C5         -0.7737   -3.8865   -0.1610 C.ar      1 <0>        -0.0650
      7 C6         -2.0829   -4.3648   -0.2204 C.ar      1 <0>        -0.1518
      8 C7         -3.1457   -3.4745   -0.2110 C.ar      1 <0>         0.2104
      9 C8         -2.9086   -2.1084   -0.1373 C.ar      1 <0>        -0.2103
     10 N2         -4.4593   -3.9537   -0.2710 N.am      1 <0>        -0.5619
     11 C9         -5.6546   -3.1103   -0.1527 C.3       1 <0>         0.0940
     12 C10        -6.8179   -3.9645   -0.7035 C.3       1 <0>        -0.1323
     13 C11        -6.2930   -5.4001   -0.4699 C.3       1 <0>        -0.1544
     14 C12        -4.7883   -5.2446   -0.4501 C.2       1 <0>         0.5150
     15 O1         -3.9944   -6.1530   -0.5749 O.2       1 <0>        -0.4974
     16 C13         0.3623   -4.8332   -0.1713 C.2       1 <0>         0.5639
     17 O2          0.1560   -6.0296   -0.2311 O.2       1 <0>        -0.4958
     18 N3          1.6265   -4.3695   -0.1144 N.am      1 <0>        -0.7253
     19 C14         2.7520   -5.3073   -0.1246 C.3       1 <0>         0.1276
     20 H1          2.4759   -6.2120    0.4171 H         1 <0>         0.1094
     21 C15         3.1042   -5.6655   -1.5697 C.3       1 <0>        -0.1007
     22 C16         1.9559   -6.4140   -2.1960 C.ar      1 <0>        -0.0801
     23 C17         1.8984   -7.7922   -2.1065 C.ar      1 <0>        -0.1075
     24 C18         0.8450   -8.4788   -2.6810 C.ar      1 <0>        -0.1111
     25 C19        -0.1511   -7.7871   -3.3444 C.ar      1 <0>        -0.1073
     26 C20        -0.0941   -6.4087   -3.4330 C.ar      1 <0>        -0.1056
     27 C21         0.9571   -5.7219   -2.8549 C.ar      1 <0>        -0.1046
     28 C22         3.9625   -4.6586    0.5497 C.3       1 <0>         0.0759
     29 H2          3.6854   -4.3231    1.5490 H         1 <0>         0.1332
     30 C23         5.0977   -5.6794    0.6509 C.3       1 <0>        -0.0492
     31 N4          6.2158   -5.0953    1.4038 N.4       1 <0>        -0.5013
     32 C24         7.3491   -6.0299    1.4011 C.3       1 <0>         0.0813
     33 H3          7.0273   -7.0146    1.7400 H         1 <0>         0.1521
     34 C25         7.9625   -6.1238   -0.0121 C.3       1 <0>        -0.1354
     35 C26         9.4645   -6.3104    0.2902 C.3       1 <0>        -0.0874
     36 C27         9.6788   -5.6681    1.6440 C.ar      1 <0>        -0.0637
     37 C28         8.4621   -5.5082    2.2845 C.ar      1 <0>        -0.1705
     38 C29         8.4147   -4.9391    3.5458 C.ar      1 <0>        -0.0930
     39 C30         9.5783   -4.5308    4.1685 C.ar      1 <0>        -0.1119
     40 C31        10.7943   -4.6910    3.5314 C.ar      1 <0>        -0.0822
     41 C32        10.8447   -5.2574    2.2678 C.ar      1 <0>        -0.1012
     42 O3          4.3963   -3.5391   -0.2253 O.3       1 <0>        -0.5494
     43 H4          0.9987    2.1603    0.1547 H         1 <0>         0.0745
     44 H5         -0.5205    2.1794   -0.7726 H         1 <0>         0.0639
     45 H6         -0.5638    2.0975    1.0049 H         1 <0>         0.0635
     46 H7          0.5413   -0.0601   -0.8500 H         1 <0>         0.0589
     47 H8          0.4980   -0.1420    0.9275 H         1 <0>         0.0578
     48 H9         -2.1193    0.3664   -0.0040 H         1 <0>         0.4026
     49 H10         0.4736   -2.1398   -0.0468 H         1 <0>         0.1211
     50 H11        -2.2683   -5.4275   -0.2739 H         1 <0>         0.1670
     51 H12        -3.7386   -1.4174   -0.1261 H         1 <0>         0.1294
     52 H13        -5.8350   -2.8560    0.8918 H         1 <0>         0.0841
     53 H14        -5.5374   -2.2044   -0.7474 H         1 <0>         0.0879
     54 H15        -7.7334   -3.7873   -0.1391 H         1 <0>         0.0996
     55 H16        -6.9731   -3.7739   -1.7654 H         1 <0>         0.0878
     56 H17        -6.6529   -5.7875    0.4832 H         1 <0>         0.1124
     57 H18        -6.5953   -6.0546   -1.2875 H         1 <0>         0.1101
     58 H19         1.7912   -3.4147   -0.0667 H         1 <0>         0.4048
     59 H20         3.2940   -4.7527   -2.1344 H         1 <0>         0.0811
     60 H21         3.9960   -6.2922   -1.5817 H         1 <0>         0.0783
     61 H22         2.6766   -8.3327   -1.5882 H         1 <0>         0.1111
     62 H23         0.8005   -9.5557   -2.6117 H         1 <0>         0.1190
     63 H24        -0.9737   -8.3235   -3.7938 H         1 <0>         0.1195
     64 H25        -0.8721   -5.8683   -3.9517 H         1 <0>         0.1162
     65 H26         0.9997   -4.6447   -2.9209 H         1 <0>         0.1093
     66 H27         4.7397   -6.5711    1.1654 H         1 <0>         0.1488
     67 H28         5.4349   -5.9483   -0.3502 H         1 <0>         0.1423
     68 H29         6.4948   -4.2270    0.9721 H         1 <0>         0.4320
     69 H30         7.5657   -6.9848   -0.5502 H         1 <0>         0.1096
     70 H31         7.7911   -5.2038   -0.5708 H         1 <0>         0.0958
     71 H32         9.7132   -7.3709    0.3311 H         1 <0>         0.1010
     72 H33        10.0677   -5.8086   -0.4663 H         1 <0>         0.0978
     73 H34         7.4648   -4.8136    4.0443 H         1 <0>         0.1242
     74 H35         9.5378   -4.0866    5.1521 H         1 <0>         0.1382
     75 H36        11.7049   -4.3724    4.0168 H         1 <0>         0.1388
     76 H37        11.7946   -5.3830    1.7697 H         1 <0>         0.1355
     77 H38         4.6591   -3.7640   -1.1283 H         1 <0>         0.3912
     78 H39         5.9262   -4.9205    2.3544 H         1 <0>         0.4275
@<TRIPOS>BOND
     1    1    2 1
     2    1   43 1
     3    1   44 1
     4    1   45 1
     5    2    3 1
     6    2   46 1
     7    2   47 1
     8    3    4 1
     9    3   48 1
    10    4    9 ar
    11    4    5 ar
    12    5    6 ar
    13    5   49 1
    14    6    7 ar
    15    6   16 1
    16    7    8 ar
    17    7   50 1
    18    8    9 ar
    19    8   10 1
    20    9   51 1
    21   10   14 am
    22   10   11 1
    23   11   12 1
    24   11   52 1
    25   11   53 1
    26   12   13 1
    27   12   54 1
    28   12   55 1
    29   13   14 1
    30   13   56 1
    31   13   57 1
    32   14   15 2
    33   16   17 2
    34   16   18 am
    35   18   19 1
    36   18   58 1
    37   19   20 1
    38   19   21 1
    39   19   28 1
    40   21   22 1
    41   21   59 1
    42   21   60 1
    43   22   27 ar
    44   22   23 ar
    45   23   24 ar
    46   23   61 1
    47   24   25 ar
    48   24   62 1
    49   25   26 ar
    50   25   63 1
    51   26   27 ar
    52   26   64 1
    53   27   65 1
    54   28   29 1
    55   28   30 1
    56   28   42 1
    57   30   31 1
    58   30   66 1
    59   30   67 1
    60   31   32 1
    61   31   68 1
    62   31   78 1
    63   32   33 1
    64   32   37 1
    65   32   34 1
    66   34   35 1
    67   34   69 1
    68   34   70 1
    69   35   36 1
    70   35   71 1
    71   35   72 1
    72   36   41 ar
    73   36   37 ar
    74   37   38 ar
    75   38   39 ar
    76   38   73 1
    77   39   40 ar
    78   39   74 1
    79   40   41 ar
    80   40   75 1
    81   41   76 1
    82   42   77 1
@<TRIPOS>MOLECULE
CHEMBL212578
   68    73     0     0     0
SMALL
USER_CHARGES

@<TRIPOS>ATOM
      1 C1         -0.0362    1.4008    0.0846 C.ar      1 <0>        -0.1200
      2 C2          1.1521    2.1069    0.0708 C.ar      1 <0>        -0.1206
      3 C3          2.3575    1.4308    0.0418 C.ar      1 <0>        -0.1154
      4 C4          2.3745    0.0486    0.0272 C.ar      1 <0>        -0.0761
      5 C5          1.1862   -0.6575    0.0419 C.ar      1 <0>        -0.0974
      6 C6         -0.0192    0.0187    0.0695 C.ar      1 <0>        -0.1200
      7 C7          3.6886   -0.6884   -0.0054 C.3       1 <0>         0.0938
      8 N1          4.1418   -0.9423    1.3687 N.3       1 <0>        -0.5234
      9 C8          4.4553    0.3152    2.0604 C.3       1 <0>         0.0382
     10 C9          4.7476    0.0234    3.5361 C.3       1 <0>         0.1522
     11 N2          5.7962   -1.0052    3.6102 N.pl3     1 <0>        -0.6776
     12 C10         5.6161   -2.2399    2.8315 C.3       1 <0>         0.1467
     13 C11         5.2895   -1.8591    1.3836 C.3       1 <0>         0.0310
     14 C12         6.9341   -0.8143    4.3992 C.ar      1 <0>         0.1519
     15 C13         6.9380   -1.2311    5.7233 C.ar      1 <0>        -0.1023
     16 C14         8.0594   -1.0436    6.5050 C.ar      1 <0>        -0.1155
     17 C15         9.1923   -0.4353    5.9668 C.ar      1 <0>        -0.0329
     18 C16         9.1921   -0.0160    4.6378 C.ar      1 <0>        -0.1062
     19 C17         8.0677   -0.2097    3.8536 C.ar      1 <0>         0.1364
     20 N3          8.0658    0.2058    2.5157 N.am      1 <0>        -0.6538
     21 C18         8.7295    1.3223    2.1559 C.2       1 <0>         0.5791
     22 O1          9.3954    1.9250    2.9761 O.2       1 <0>        -0.5174
     23 C19         8.6485    1.8124    0.7698 C.2       1 <0>        -0.2847
     24 C20         9.3255    2.9559    0.3679 C.2       1 <0>         0.0886
     25 C21         9.1731    3.3842   -0.9760 C.ar      1 <0>        -0.1715
     26 C22         9.9812    4.4073   -1.4930 C.ar      1 <0>        -0.0389
     27 C23         9.8510    4.7794   -2.8001 C.ar      1 <0>        -0.1413
     28 C24         8.9192    4.1594   -3.6214 C.ar      1 <0>        -0.0467
     29 C25         8.1002    3.1646   -3.1287 C.ar      1 <0>        -0.1361
     30 C26         8.2100    2.7739   -1.8010 C.ar      1 <0>         0.1518
     31 O2          7.3827    1.8284   -1.2942 O.3       1 <0>        -0.2683
     32 C27         7.8501    1.1048   -0.2478 C.2       1 <0>         0.5260
     33 O3          7.6168   -0.0853   -0.1484 O.2       1 <0>        -0.4378
     34 C28        10.3971   -0.2339    6.8085 C.ar      1 <0>        -0.0436
     35 C29        11.5289    0.3792    6.2743 C.ar      1 <0>        -0.1070
     36 C30        12.6471    0.5639    7.0619 C.ar      1 <0>        -0.1182
     37 C31        12.6459    0.1414    8.3791 C.ar      1 <0>        -0.1190
     38 C32        11.5255   -0.4681    8.9144 C.ar      1 <0>        -0.1190
     39 C33        10.3995   -0.6520    8.1379 C.ar      1 <0>        -0.1097
     40 H1         -0.9779    1.9290    0.1118 H         1 <0>         0.1205
     41 H2          1.1388    3.1867    0.0822 H         1 <0>         0.1201
     42 H3          3.2859    1.9824    0.0303 H         1 <0>         0.1145
     43 H4          1.1995   -1.7373    0.0301 H         1 <0>         0.1221
     44 H5         -0.9476   -0.5330    0.0806 H         1 <0>         0.1216
     45 H6          3.5603   -1.6370   -0.5267 H         1 <0>         0.0838
     46 H7          4.4310   -0.0846   -0.5271 H         1 <0>         0.0422
     47 H8          5.3299    0.7751    1.6004 H         1 <0>         0.0254
     48 H9          3.6052    0.9934    1.9852 H         1 <0>         0.0852
     49 H10         5.0917    0.9332    4.0281 H         1 <0>         0.0692
     50 H11         3.8430   -0.3401    4.0237 H         1 <0>         0.0618
     51 H12         6.5344   -2.8266    2.8576 H         1 <0>         0.0721
     52 H13         4.7950   -2.8210    3.2514 H         1 <0>         0.0628
     53 H14         5.0446   -2.7577    0.8175 H         1 <0>         0.0824
     54 H15         6.1525   -1.3688    0.9330 H         1 <0>         0.0477
     55 H16         6.0614   -1.7027    6.1425 H         1 <0>         0.1306
     56 H17         8.0593   -1.3683    7.5350 H         1 <0>         0.1283
     57 H18        10.0688    0.4559    4.2193 H         1 <0>         0.1440
     58 H19         7.5867   -0.3100    1.8484 H         1 <0>         0.4193
     59 H20         9.9497    3.5036    1.0584 H         1 <0>         0.1688
     60 H21        10.7040    4.8994   -0.8591 H         1 <0>         0.1459
     61 H22        10.4781    5.5632   -3.1986 H         1 <0>         0.1414
     62 H23         8.8344    4.4589   -4.6555 H         1 <0>         0.1456
     63 H24         7.3755    2.6909   -3.7743 H         1 <0>         0.1483
     64 H25        11.5311    0.7088    5.2459 H         1 <0>         0.1258
     65 H26        13.5247    1.0390    6.6490 H         1 <0>         0.1234
     66 H27        13.5233    0.2877    8.9917 H         1 <0>         0.1222
     67 H28        11.5303   -0.7964    9.9433 H         1 <0>         0.1241
     68 H29         9.5235   -1.1237    8.5583 H         1 <0>         0.1258
@<TRIPOS>BOND
     1    1    6 ar
     2    1    2 ar
     3    1   40 1
     4    2    3 ar
     5    2   41 1
     6    3    4 ar
     7    3   42 1
     8    4    5 ar
     9    4    7 1
    10    5    6 ar
    11    5   43 1
    12    6   44 1
    13    7    8 1
    14    7   45 1
    15    7   46 1
    16    8   13 1
    17    8    9 1
    18    9   10 1
    19    9   47 1
    20    9   48 1
    21   10   11 1
    22   10   49 1
    23   10   50 1
    24   11   12 1
    25   11   14 1
    26   12   13 1
    27   12   51 1
    28   12   52 1
    29   13   53 1
    30   13   54 1
    31   14   19 ar
    32   14   15 ar
    33   15   16 ar
    34   15   55 1
    35   16   17 ar
    36   16   56 1
    37   17   18 ar
    38   17   34 1
    39   18   19 ar
    40   18   57 1
    41   19   20 1
    42   20   21 am
    43   20   58 1
    44   21   22 2
    45   21   23 1
    46   23   32 1
    47   23   24 2
    48   24   25 1
    49   24   59 1
    50   25   30 ar
    51   25   26 ar
    52   26   27 ar
    53   26   60 1
    54   27   28 ar
    55   27   61 1
    56   28   29 ar
    57   28   62 1
    58   29   30 ar
    59   29   63 1
    60   30   31 1
    61   31   32 1
    62   32   33 2
    63   34   39 ar
    64   34   35 ar
    65   35   36 ar
    66   35   64 1
    67   36   37 ar
    68   36   65 1
    69   37   38 ar
    70   37   66 1
    71   38   39 ar
    72   38   67 1
    73   39   68 1
@<TRIPOS>MOLECULE
CHEMBL212578__1
   69    74     0     0     0
SMALL
USER_CHARGES

@<TRIPOS>ATOM
      1 C1         -0.0361    1.3995    0.0850 C.ar      1 <0>        -0.0842
      2 C2          1.1523    2.1055    0.0704 C.ar      1 <0>        -0.1128
      3 C3          2.3576    1.4293    0.0415 C.ar      1 <0>        -0.0979
      4 C4          2.3745    0.0471    0.0276 C.ar      1 <0>        -0.1586
      5 C5          1.1861   -0.6589    0.0431 C.ar      1 <0>        -0.0924
      6 C6         -0.0192    0.0174    0.0707 C.ar      1 <0>        -0.1121
      7 C7          3.6885   -0.6901   -0.0049 C.3       1 <0>         0.0423
      8 N1          4.1421   -0.9432    1.3692 N.4       1 <0>        -0.3756
      9 C8          4.4192    0.3360    2.0347 C.3       1 <0>        -0.0304
     10 C9          4.7817    0.0797    3.5012 C.3       1 <0>         0.1230
     11 N2          5.8947   -0.8813    3.5453 N.pl3     1 <0>        -0.6729
     12 C10         5.7682   -2.1247    2.7695 C.3       1 <0>         0.1165
     13 C11         5.3590   -1.7643    1.3376 C.3       1 <0>        -0.0344
     14 C12         7.0402   -0.6200    4.3025 C.ar      1 <0>         0.1187
     15 C13         7.1070   -1.0355    5.6254 C.ar      1 <0>        -0.0904
     16 C14         8.2361   -0.7788    6.3756 C.ar      1 <0>        -0.1171
     17 C15         9.3136   -0.1015    5.8070 C.ar      1 <0>        -0.0074
     18 C16         9.2503    0.3167    4.4791 C.ar      1 <0>        -0.1093
     19 C17         8.1185    0.0535    3.7263 C.ar      1 <0>         0.1465
     20 N3          8.0534    0.4678    2.3897 N.am      1 <0>        -0.6625
     21 C18         8.6364    1.6231    2.0130 C.2       1 <0>         0.5800
     22 O1          9.2865    2.2661    2.8153 O.2       1 <0>        -0.5044
     23 C19         8.4864    2.1069    0.6305 C.2       1 <0>        -0.3059
     24 C20         9.0798    3.2901    0.2116 C.2       1 <0>         0.1094
     25 C21         8.8636    3.7078   -1.1269 C.ar      1 <0>        -0.1770
     26 C22         9.5921    4.7788   -1.6648 C.ar      1 <0>        -0.0336
     27 C23         9.4025    5.1419   -2.9671 C.ar      1 <0>        -0.1360
     28 C24         8.4882    4.4652   -3.7629 C.ar      1 <0>        -0.0383
     29 C25         7.7465    3.4217   -3.2491 C.ar      1 <0>        -0.1358
     30 C26         7.9174    3.0389   -1.9255 C.ar      1 <0>         0.1493
     31 O2          7.1647    2.0441   -1.3972 O.3       1 <0>        -0.2705
     32 C27         7.7051    1.3510   -0.3654 C.2       1 <0>         0.5331
     33 O3          7.5487    0.1489   -0.2613 O.2       1 <0>        -0.4634
     34 C28        10.5268    0.1743    6.6149 C.ar      1 <0>        -0.0608
     35 C29        11.6031    0.8562    6.0502 C.ar      1 <0>        -0.1022
     36 C30        12.7293    1.1100    6.8065 C.ar      1 <0>        -0.1180
     37 C31        12.7912    0.6885    8.1225 C.ar      1 <0>        -0.1088
     38 C32        11.7261    0.0109    8.6880 C.ar      1 <0>        -0.1184
     39 C33        10.5923   -0.2426    7.9431 C.ar      1 <0>        -0.1043
     40 H1         -0.9777    1.9278    0.1122 H         1 <0>         0.1358
     41 H2          1.1391    3.1854    0.0813 H         1 <0>         0.1355
     42 H3          3.2861    1.9808    0.0294 H         1 <0>         0.1278
     43 H4          1.1994   -1.7387    0.0319 H         1 <0>         0.1316
     44 H5         -0.9477   -0.5342    0.0824 H         1 <0>         0.1363
     45 H6          3.5600   -1.6390   -0.5257 H         1 <0>         0.1387
     46 H7          4.4309   -0.0866   -0.5272 H         1 <0>         0.1332
     47 H8          5.2516    0.8324    1.5360 H         1 <0>         0.1183
     48 H9          3.5345    0.9708    1.9846 H         1 <0>         0.1392
     49 H10         5.0860    1.0144    3.9721 H         1 <0>         0.1147
     50 H11         3.9198   -0.3339    4.0247 H         1 <0>         0.0828
     51 H12         6.7246   -2.6474    2.7567 H         1 <0>         0.1174
     52 H13         5.0058   -2.7610    3.2191 H         1 <0>         0.0840
     53 H14         5.1670   -2.6772    0.7738 H         1 <0>         0.1413
     54 H15         6.1630   -1.2044    0.8599 H         1 <0>         0.1334
     55 H16         6.2734   -1.5604    6.0682 H         1 <0>         0.1327
     56 H17         8.2850   -1.1026    7.4048 H         1 <0>         0.1341
     57 H18        10.0840    0.8418    4.0369 H         1 <0>         0.1482
     58 H19         7.5886   -0.0768    1.7352 H         1 <0>         0.4104
     59 H20         9.6881    3.8756    0.8851 H         1 <0>         0.1715
     60 H21        10.3005    5.3149   -1.0506 H         1 <0>         0.1496
     61 H22         9.9685    5.9629   -3.3818 H         1 <0>         0.1462
     62 H23         8.3561    4.7587   -4.7939 H         1 <0>         0.1499
     63 H24         7.0346    2.9039   -3.8748 H         1 <0>         0.1497
     64 H25        11.5561    1.1851    5.0226 H         1 <0>         0.1254
     65 H26        13.5639    1.6384    6.3699 H         1 <0>         0.1266
     66 H27        13.6746    0.8890    8.7106 H         1 <0>         0.1264
     67 H28        11.7800   -0.3162    9.7159 H         1 <0>         0.1276
     68 H29         9.7594   -0.7675    8.3871 H         1 <0>         0.1263
     69 H30         3.4201   -1.4335    1.8755 H         1 <0>         0.4217
@<TRIPOS>BOND
     1    1    6 ar
     2    1    2 ar
     3    1   40 1
     4    2    3 ar
     5    2   41 1
     6    3    4 ar
     7    3   42 1
     8    4    5 ar
     9    4    7 1
    10    5    6 ar
    11    5   43 1
    12    6   44 1
    13    7    8 1
    14    7   45 1
    15    7   46 1
    16    8   13 1
    17    8    9 1
    18    8   69 1
    19    9   10 1
    20    9   47 1
    21    9   48 1
    22   10   11 1
    23   10   49 1
    24   10   50 1
    25   11   12 1
    26   11   14 1
    27   12   13 1
    28   12   51 1
    29   12   52 1
    30   13   53 1
    31   13   54 1
    32   14   19 ar
    33   14   15 ar
    34   15   16 ar
    35   15   55 1
    36   16   17 ar
    37   16   56 1
    38   17   18 ar
    39   17   34 1
    40   18   19 ar
    41   18   57 1
    42   19   20 1
    43   20   21 am
    44   20   58 1
    45   21   22 2
    46   21   23 1
    47   23   32 1
    48   23   24 2
    49   24   25 1
    50   24   59 1
    51   25   30 ar
    52   25   26 ar
    53   26   27 ar
    54   26   60 1
    55   27   28 ar
    56   27   61 1
    57   28   29 ar
    58   28   62 1
    59   29   30 ar
    60   29   63 1
    61   30   31 1
    62   31   32 1
    63   32   33 2
    64   34   39 ar
    65   34   35 ar
    66   35   36 ar
    67   35   64 1
    68   36   37 ar
    69   36   65 1
    70   37   38 ar
    71   37   66 1
    72   38   39 ar
    73   38   67 1
    74   39   68 1
@<TRIPOS>MOLECULE
CHEMBL584917
   51    55     0     0     0
SMALL
USER_CHARGES

@<TRIPOS>ATOM
      1 C1         -0.0922    1.4576    0.3191 C.3       1 <0>         0.0610
      2 N1         -0.0477    0.0044    0.1392 N.am      1 <0>        -0.5530
      3 C2         -1.1137   -0.8093    0.2586 C.2       1 <0>         0.5444
      4 O1         -2.2500   -0.4815    0.5264 O.2       1 <0>        -0.3901
      5 C3         -0.6155   -2.2137   -0.0076 C.3       1 <0>         0.2366
      6 N2          0.8217   -2.0470   -0.2783 N.pl3     1 <0>        -0.6654
      7 C4          1.0858   -0.7033   -0.1788 C.cat     1 <0>         0.7339
      8 N3          2.2593   -0.1694   -0.3593 N.pl3     1 <0>        -0.7322
      9 C5         -1.3126   -2.8010   -1.2077 C.ar      1 <0>        -0.1089
     10 C6         -2.6946   -2.8053   -1.2698 C.ar      1 <0>        -0.0885
     11 C7         -3.3409   -3.3427   -2.3681 C.ar      1 <0>        -0.0971
     12 C8         -2.6092   -3.8775   -3.4093 C.ar      1 <0>        -0.0868
     13 C9         -1.2172   -3.8753   -3.3522 C.ar      1 <0>        -0.0258
     14 C10        -0.5711   -3.3283   -2.2452 C.ar      1 <0>        -0.0942
     15 C11        -0.4252   -4.4489   -4.4684 C.ar      1 <0>        -0.1097
     16 C12        -1.0640   -4.9903   -5.5875 C.ar      1 <0>        -0.0613
     17 C13        -0.2804   -5.5130   -6.6017 C.ar      1 <0>        -0.1616
     18 C14         1.0967   -5.4832   -6.4765 C.ar      1 <0>         0.1086
     19 N4          1.6711   -4.9658   -5.4079 N.ar      1 <0>        -0.4796
     20 C15         0.9669   -4.4513   -4.4204 C.ar      1 <0>         0.1081
     21 C16        -0.8255   -3.0853    1.2036 C.ar      1 <0>        -0.1173
     22 C17        -2.0334   -3.0535    1.8756 C.ar      1 <0>        -0.0894
     23 C18        -2.2293   -3.8504    2.9876 C.ar      1 <0>        -0.1005
     24 C19        -1.2143   -4.6846    3.4322 C.ar      1 <0>         0.0799
     25 C20        -0.0011   -4.7185    2.7553 C.ar      1 <0>         0.0602
     26 C21         0.1875   -3.9192    1.6374 C.ar      1 <0>        -0.0928
     27 O2          1.0053   -5.5356    3.1699 O.3       1 <0>        -0.3034
     28 C22         0.9109   -6.0469    4.5039 C.3       1 <0>         0.0193
     29 C23        -0.5199   -6.5568    4.7231 C.3       1 <0>         0.0170
     30 O3         -1.4207   -5.4606    4.5312 O.3       1 <0>        -0.2985
     31 H1          0.9029    1.8738    0.1622 H         1 <0>         0.0991
     32 H2         -0.7854    1.8919   -0.4014 H         1 <0>         0.1109
     33 H3         -0.4273    1.6885    1.3303 H         1 <0>         0.1112
     34 H4          2.3748    0.7896   -0.2702 H         1 <0>         0.4489
     35 H5         -3.2710   -2.3879   -0.4574 H         1 <0>         0.1393
     36 H6         -4.4200   -3.3441   -2.4112 H         1 <0>         0.1420
     37 H7         -3.1148   -4.2972   -4.2664 H         1 <0>         0.1373
     38 H8          0.5078   -3.3206   -2.1976 H         1 <0>         0.1221
     39 H9         -2.1415   -5.0008   -5.6588 H         1 <0>         0.1407
     40 H10        -0.7394   -5.9399   -7.4812 H         1 <0>         0.1447
     41 H11         1.7112   -5.8901   -7.2659 H         1 <0>         0.1635
     42 H12         1.4735   -4.0321   -3.5636 H         1 <0>         0.1486
     43 H13        -2.8250   -2.4046    1.5312 H         1 <0>         0.1473
     44 H14        -3.1735   -3.8232    3.5111 H         1 <0>         0.1503
     45 H15         1.1285   -3.9454    1.1081 H         1 <0>         0.1314
     46 H16         1.6173   -6.8668    4.6341 H         1 <0>         0.1319
     47 H17         1.1319   -5.2537    5.2181 H         1 <0>         0.0838
     48 H18        -0.7430   -7.3459    4.0050 H         1 <0>         0.0857
     49 H19        -0.6213   -6.9427    5.7374 H         1 <0>         0.1326
     50 H20         1.4572   -2.7488   -0.4894 H         1 <0>         0.4631
     51 H21         3.0183   -0.7306   -0.5828 H         1 <0>         0.4528
@<TRIPOS>BOND
     1    1    2 1
     2    1   31 1
     3    1   32 1
     4    1   33 1
     5    2    7 1
     6    2    3 am
     7    3    4 2
     8    3    5 1
     9    5    6 1
    10    5    9 1
    11    5   21 1
    12    6    7 1
    13    6   50 1
    14    7    8 2
    15    8   34 1
    16    8   51 1
    17    9   14 ar
    18    9   10 ar
    19   10   11 ar
    20   10   35 1
    21   11   12 ar
    22   11   36 1
    23   12   13 ar
    24   12   37 1
    25   13   14 ar
    26   13   15 1
    27   14   38 1
    28   15   20 ar
    29   15   16 ar
    30   16   17 ar
    31   16   39 1
    32   17   18 ar
    33   17   40 1
    34   18   19 ar
    35   18   41 1
    36   19   20 ar
    37   20   42 1
    38   21   26 ar
    39   21   22 ar
    40   22   23 ar
    41   22   43 1
    42   23   24 ar
    43   23   44 1
    44   24   30 1
    45   24   25 ar
    46   25   26 ar
    47   25   27 1
    48   26   45 1
    49   27   28 1
    50   28   29 1
    51   28   46 1
    52   28   47 1
    53   29   30 1
    54   29   48 1
    55   29   49 1
@<TRIPOS>MOLECULE
CHEMBL584917__1
   51    55     0     0     0
SMALL
USER_CHARGES

@<TRIPOS>ATOM
      1 C1         -1.5983    1.3391    0.3477 C.3       1 <0>         0.0628
      2 N1         -0.9693    0.0224    0.2178 N.am      1 <0>        -0.5526
      3 C2         -1.6421   -1.1410    0.0938 C.2       1 <0>         0.5433
      4 O1         -2.8441   -1.2986    0.0682 O.2       1 <0>        -0.3834
      5 C3         -0.5701   -2.2081   -0.0072 C.3       1 <0>         0.2267
      6 N2          0.6899   -1.4528    0.0795 N.pl3     1 <0>        -0.6252
      7 C4          0.3857   -0.1975    0.1996 C.cat     1 <0>         0.7345
      8 N3          1.3203    0.8051    0.3017 N.pl3     1 <0>        -0.7764
      9 C5         -0.6645   -2.9293   -1.3271 C.ar      1 <0>        -0.1097
     10 C6         -1.8818   -3.4270   -1.7564 C.ar      1 <0>        -0.0893
     11 C7         -1.9757   -4.0898   -2.9666 C.ar      1 <0>        -0.0953
     12 C8         -0.8538   -4.2578   -3.7533 C.ar      1 <0>        -0.0855
     13 C9          0.3745   -3.7582   -3.3260 C.ar      1 <0>        -0.0233
     14 C10         0.4624   -3.0870   -2.1079 C.ar      1 <0>        -0.0950
     15 C11         1.5839   -3.9358   -4.1674 C.ar      1 <0>        -0.1110
     16 C12         1.5037   -4.5984   -5.3953 C.ar      1 <0>        -0.0607
     17 C13         2.6604   -4.7382   -6.1426 C.ar      1 <0>        -0.1615
     18 C14         3.8474   -4.2226   -5.6548 C.ar      1 <0>         0.1095
     19 N4          3.8922   -3.6023   -4.4917 N.ar      1 <0>        -0.4793
     20 C15         2.8164   -3.4398   -3.7486 C.ar      1 <0>         0.1088
     21 C16        -0.6831   -3.1813    1.1378 C.ar      1 <0>        -0.1189
     22 C17         0.4341   -3.4955    1.8892 C.ar      1 <0>        -0.0958
     23 C18         0.3347   -4.3885    2.9392 C.ar      1 <0>        -0.1038
     24 C19        -0.8867   -4.9718    3.2422 C.ar      1 <0>         0.0809
     25 C20        -2.0102   -4.6540    2.4884 C.ar      1 <0>         0.0672
     26 C21        -1.9044   -3.7538    1.4385 C.ar      1 <0>        -0.0863
     27 O2         -3.2200   -5.2088    2.7735 O.3       1 <0>        -0.2994
     28 C22        -3.2128   -6.3809    3.5958 C.3       1 <0>         0.0181
     29 C23        -2.2778   -6.1273    4.7860 C.3       1 <0>         0.0172
     30 O3         -0.9682   -5.8525    4.2766 O.3       1 <0>        -0.2986
     31 H1         -0.8262    2.1044    0.4268 H         1 <0>         0.1008
     32 H2         -2.2155    1.5350   -0.5290 H         1 <0>         0.1095
     33 H3         -2.2211    1.3576    1.2420 H         1 <0>         0.1097
     34 H4          1.0341    1.7275    0.3929 H         1 <0>         0.4445
     35 H5          2.2660    0.5904    0.2825 H         1 <0>         0.4472
     36 H6         -2.7620   -3.2977   -1.1441 H         1 <0>         0.1396
     37 H7         -2.9283   -4.4769   -3.2967 H         1 <0>         0.1429
     38 H8         -0.9282   -4.7758   -4.6980 H         1 <0>         0.1384
     39 H9          1.4114   -2.6944   -1.7738 H         1 <0>         0.1218
     40 H10         0.5632   -4.9916   -5.7519 H         1 <0>         0.1407
     41 H11         2.6363   -5.2448   -7.0962 H         1 <0>         0.1450
     42 H12         4.7519   -4.3298   -6.2352 H         1 <0>         0.1638
     43 H13         2.8919   -2.9219   -2.8039 H         1 <0>         0.1487
     44 H14         1.3861   -3.0426    1.6550 H         1 <0>         0.1285
     45 H15         1.2090   -4.6328    3.5243 H         1 <0>         0.1492
     46 H16        -2.7765   -3.5033    0.8528 H         1 <0>         0.1491
     47 H17        -4.2212   -6.5826    3.9570 H         1 <0>         0.1332
     48 H18        -2.8511   -7.2322    3.0191 H         1 <0>         0.0858
     49 H19        -2.6360   -5.2723    5.3593 H         1 <0>         0.0854
     50 H20        -2.2463   -7.0109    5.4235 H         1 <0>         0.1333
     51 H21         1.5850   -1.8254    0.0482 H         1 <0>         0.4649
@<TRIPOS>BOND
     1    1    2 1
     2    1   31 1
     3    1   32 1
     4    1   33 1
     5    2    7 1
     6    2    3 am
     7    3    4 2
     8    3    5 1
     9    5    6 1
    10    5    9 1
    11    5   21 1
    12    6    7 2
    13    6   51 1
    14    7    8 1
    15    8   34 1
    16    8   35 1
    17    9   14 ar
    18    9   10 ar
    19   10   11 ar
    20   10   36 1
    21   11   12 ar
    22   11   37 1
    23   12   13 ar
    24   12   38 1
    25   13   14 ar
    26   13   15 1
    27   14   39 1
    28   15   20 ar
    29   15   16 ar
    30   16   17 ar
    31   16   40 1
    32   17   18 ar
    33   17   41 1
    34   18   19 ar
    35   18   42 1
    36   19   20 ar
    37   20   43 1
    38   21   26 ar
    39   21   22 ar
    40   22   23 ar
    41   22   44 1
    42   23   24 ar
    43   23   45 1
    44   24   30 1
    45   24   25 ar
    46   25   26 ar
    47   25   27 1
    48   26   46 1
    49   27   28 1
    50   28   29 1
    51   28   47 1
    52   28   48 1
    53   29   30 1
    54   29   49 1
    55   29   50 1
@<TRIPOS>MOLECULE
CHEMBL584917__2
   51    55     0     0     0
SMALL
USER_CHARGES

@<TRIPOS>ATOM
      1 C1          0.9763    1.1337    0.3393 C.3       1 <0>         0.0610
      2 N1          0.5853   -0.2646    0.1439 N.am      1 <0>        -0.5531
      3 C2         -0.6700   -0.7299    0.2871 C.2       1 <0>         0.5442
      4 O1         -1.6516   -0.0867    0.5920 O.2       1 <0>        -0.3901
      5 C3         -0.6155   -2.2137   -0.0076 C.3       1 <0>         0.2367
      6 N2          0.7994   -2.4732   -0.3195 N.pl3     1 <0>        -0.6654
      7 C4          1.4508   -1.2690   -0.2148 C.cat     1 <0>         0.7340
      8 N3          2.7246   -1.1016   -0.4251 N.pl3     1 <0>        -0.7322
      9 C5         -1.0423   -3.0066    1.2008 C.ar      1 <0>        -0.1080
     10 C6         -2.1913   -2.6553    1.8865 C.ar      1 <0>        -0.0927
     11 C7         -2.5888   -3.3785    2.9963 C.ar      1 <0>        -0.0968
     12 C8         -1.8403   -4.4560    3.4254 C.ar      1 <0>        -0.0869
     13 C9         -0.6825   -4.8145    2.7384 C.ar      1 <0>        -0.0255
     14 C10        -0.2893   -4.0851    1.6179 C.ar      1 <0>        -0.0920
     15 C11         0.1262   -5.9718    3.1951 C.ar      1 <0>        -0.1100
     16 C12        -0.2658   -6.7158    4.3114 C.ar      1 <0>        -0.0613
     17 C13         0.5228   -7.7860    4.6970 C.ar      1 <0>        -0.1618
     18 C14         1.6628   -8.0822    3.9720 C.ar      1 <0>         0.1087
     19 N4          2.0076   -7.3613    2.9227 N.ar      1 <0>        -0.4796
     20 C15         1.2853   -6.3378    2.5146 C.ar      1 <0>         0.1085
     21 C16        -1.4855   -2.5475   -1.1920 C.ar      1 <0>        -0.1180
     22 C17        -2.7996   -2.1192   -1.2255 C.ar      1 <0>        -0.0850
     23 C18        -3.6009   -2.4244   -2.3092 C.ar      1 <0>        -0.1009
     24 C19        -3.0884   -3.1612   -3.3667 C.ar      1 <0>         0.0800
     25 C20        -1.7668   -3.5896   -3.3342 C.ar      1 <0>         0.0601
     26 C21        -0.9667   -3.2763   -2.2454 C.ar      1 <0>        -0.0952
     27 O2         -1.2416   -4.3070   -4.3648 O.3       1 <0>        -0.3043
     28 C22        -2.1730   -4.9142   -5.2668 C.3       1 <0>         0.0191
     29 C23        -3.2388   -3.8717   -5.6309 C.3       1 <0>         0.0174
     30 O3         -3.8909   -3.4576   -4.4254 O.3       1 <0>        -0.2982
     31 H1          2.0456    1.2408    0.1568 H         1 <0>         0.0991
     32 H2          0.4239    1.7660   -0.3558 H         1 <0>         0.1109
     33 H3          0.7504    1.4346    1.3623 H         1 <0>         0.1111
     34 H4          3.1202   -0.2210   -0.3301 H         1 <0>         0.4489
     35 H5         -2.7799   -1.8130    1.5542 H         1 <0>         0.1405
     36 H6         -3.4863   -3.0995    3.5283 H         1 <0>         0.1420
     37 H7         -2.1514   -5.0199    4.2924 H         1 <0>         0.1373
     38 H8          0.6053   -4.3610    1.0794 H         1 <0>         0.1221
     39 H9         -1.1611   -6.4619    4.8595 H         1 <0>         0.1406
     40 H10         0.2510   -8.3831    5.5549 H         1 <0>         0.1447
     41 H11         2.2805   -8.9165    4.2700 H         1 <0>         0.1634
     42 H12         1.5974   -5.7744    1.6477 H         1 <0>         0.1490
     43 H13        -3.2007   -1.5454   -0.4031 H         1 <0>         0.1460
     44 H14        -4.6273   -2.0892   -2.3327 H         1 <0>         0.1504
     45 H15         0.0614   -3.6059   -2.2187 H         1 <0>         0.1314
     46 H16        -1.6534   -5.2388   -6.1683 H         1 <0>         0.1318
     47 H17        -2.6456   -5.7705   -4.7858 H         1 <0>         0.0852
     48 H18        -2.7655   -3.0127   -6.1065 H         1 <0>         0.0844
     49 H19        -3.9680   -4.3132   -6.3102 H         1 <0>         0.1327
     50 H20         1.1938   -3.3271   -0.5564 H         1 <0>         0.4631
     51 H21         3.2781   -1.8574   -0.6767 H         1 <0>         0.4528
@<TRIPOS>BOND
     1    1    2 1
     2    1   31 1
     3    1   32 1
     4    1   33 1
     5    2    7 1
     6    2    3 am
     7    3    4 2
     8    3    5 1
     9    5    6 1
    10    5    9 1
    11    5   21 1
    12    6    7 1
    13    6   50 1
    14    7    8 2
    15    8   34 1
    16    8   51 1
    17    9   14 ar
    18    9   10 ar
    19   10   11 ar
    20   10   35 1
    21   11   12 ar
    22   11   36 1
    23   12   13 ar
    24   12   37 1
    25   13   14 ar
    26   13   15 1
    27   14   38 1
    28   15   20 ar
    29   15   16 ar
    30   16   17 ar
    31   16   39 1
    32   17   18 ar
    33   17   40 1
    34   18   19 ar
    35   18   41 1
    36   19   20 ar
    37   20   42 1
    38   21   26 ar
    39   21   22 ar
    40   22   23 ar
    41   22   43 1
    42   23   24 ar
    43   23   44 1
    44   24   30 1
    45   24   25 ar
    46   25   26 ar
    47   25   27 1
    48   26   45 1
    49   27   28 1
    50   28   29 1
    51   28   46 1
    52   28   47 1
    53   29   30 1
    54   29   48 1
    55   29   49 1
@<TRIPOS>MOLECULE
CHEMBL584917__3
   51    55     0     0     0
SMALL
USER_CHARGES

@<TRIPOS>ATOM
      1 C1         -0.5679    1.4825   -0.3881 C.3       1 <0>         0.0627
      2 N1         -0.3311    0.0442   -0.2426 N.am      1 <0>        -0.5525
      3 C2         -1.3023   -0.8868   -0.1346 C.2       1 <0>         0.5435
      4 O1         -2.5012   -0.7056   -0.1388 O.2       1 <0>        -0.3838
      5 C3         -0.5701   -2.2081   -0.0072 C.3       1 <0>         0.2263
      6 N2          0.8514   -1.8315   -0.0637 N.pl3     1 <0>        -0.6241
      7 C4          0.9092   -0.5431   -0.2033 C.cat     1 <0>         0.7339
      8 N3          2.0867    0.1595   -0.2979 N.pl3     1 <0>        -0.7769
      9 C5         -0.8910   -2.8657    1.3102 C.ar      1 <0>        -0.1093
     10 C6          0.1322   -3.3292    2.1178 C.ar      1 <0>        -0.1020
     11 C7         -0.1552   -3.9337    3.3281 C.ar      1 <0>        -0.0994
     12 C8         -1.4658   -4.0772    3.7369 C.ar      1 <0>        -0.0870
     13 C9         -2.5000   -3.6119    2.9277 C.ar      1 <0>        -0.0159
     14 C10        -2.2046   -2.9993    1.7114 C.ar      1 <0>        -0.0861
     15 C11        -3.9110   -3.7634    3.3618 C.ar      1 <0>        -0.1165
     16 C12        -4.2167   -4.3669    4.5848 C.ar      1 <0>        -0.0601
     17 C13        -5.5483   -4.4845    4.9441 C.ar      1 <0>        -0.1657
     18 C14        -6.5245   -4.0055    4.0893 C.ar      1 <0>         0.1114
     19 N4         -6.2051   -3.4408    2.9410 N.ar      1 <0>        -0.4780
     20 C15        -4.9518   -3.3013    2.5596 C.ar      1 <0>         0.1161
     21 C16        -0.9214   -3.1201   -1.1544 C.ar      1 <0>        -0.1196
     22 C17        -2.2467   -3.3345   -1.4846 C.ar      1 <0>        -0.0844
     23 C18        -2.5729   -4.1711   -2.5351 C.ar      1 <0>        -0.0988
     24 C19        -1.5710   -4.7977   -3.2612 C.ar      1 <0>         0.0822
     25 C20        -0.2387   -4.5803   -2.9309 C.ar      1 <0>         0.0619
     26 C21         0.0819   -3.7361   -1.8781 C.ar      1 <0>        -0.0963
     27 O2          0.7602   -5.1790   -3.6353 O.3       1 <0>        -0.3040
     28 C22         0.3934   -6.3013   -4.4452 C.3       1 <0>         0.0191
     29 C23        -0.8734   -5.9341   -5.2299 C.3       1 <0>         0.0171
     30 O3         -1.9079   -5.6221   -4.2905 O.3       1 <0>        -0.2972
     31 H1          0.3873    2.0028   -0.4586 H         1 <0>         0.1006
     32 H2         -1.1488    1.6655   -1.2921 H         1 <0>         0.1099
     33 H3         -1.1185    1.8496    0.4780 H         1 <0>         0.1099
     34 H4          2.0691    1.1242   -0.3981 H         1 <0>         0.4443
     35 H5          2.9352   -0.3092   -0.2643 H         1 <0>         0.4469
     36 H6          1.1590   -3.2190    1.8019 H         1 <0>         0.1210
     37 H7          0.6473   -4.2944    3.9544 H         1 <0>         0.1403
     38 H8         -1.6891   -4.5497    4.6820 H         1 <0>         0.1385
     39 H9         -3.0023   -2.6334    1.0820 H         1 <0>         0.1406
     40 H10        -3.4340   -4.7326    5.2328 H         1 <0>         0.1393
     41 H11        -5.8220   -4.9457    5.8815 H         1 <0>         0.1440
     42 H12        -7.5644   -4.0955    4.3664 H         1 <0>         0.1634
     43 H13        -4.7296   -2.8289    1.6142 H         1 <0>         0.1553
     44 H14        -3.0284   -2.8476   -0.9204 H         1 <0>         0.1454
     45 H15        -3.6089   -4.3374   -2.7906 H         1 <0>         0.1520
     46 H16         1.1165   -3.5635   -1.6209 H         1 <0>         0.1307
     47 H17         1.2012   -6.5334   -5.1392 H         1 <0>         0.1324
     48 H18         0.1948   -7.1641   -3.8095 H         1 <0>         0.0857
     49 H19        -0.6766   -5.0676   -5.8612 H         1 <0>         0.0850
     50 H20        -1.1804   -6.7778   -5.8480 H         1 <0>         0.1333
     51 H21         1.6074   -2.4369   -0.0105 H         1 <0>         0.4652
@<TRIPOS>BOND
     1    1    2 1
     2    1   31 1
     3    1   32 1
     4    1   33 1
     5    2    7 1
     6    2    3 am
     7    3    4 2
     8    3    5 1
     9    5    6 1
    10    5    9 1
    11    5   21 1
    12    6    7 2
    13    6   51 1
    14    7    8 1
    15    8   34 1
    16    8   35 1
    17    9   14 ar
    18    9   10 ar
    19   10   11 ar
    20   10   36 1
    21   11   12 ar
    22   11   37 1
    23   12   13 ar
    24   12   38 1
    25   13   14 ar
    26   13   15 1
    27   14   39 1
    28   15   20 ar
    29   15   16 ar
    30   16   17 ar
    31   16   40 1
    32   17   18 ar
    33   17   41 1
    34   18   19 ar
    35   18   42 1
    36   19   20 ar
    37   20   43 1
    38   21   26 ar
    39   21   22 ar
    40   22   23 ar
    41   22   44 1
    42   23   24 ar
    43   23   45 1
    44   24   30 1
    45   24   25 ar
    46   25   26 ar
    47   25   27 1
    48   26   46 1
    49   27   28 1
    50   28   29 1
    51   28   47 1
    52   28   48 1
    53   29   30 1
    54   29   49 1
    55   29   50 1
@<TRIPOS>MOLECULE
CHEMBL1209107
   72    75     0     0     0
SMALL
USER_CHARGES

@<TRIPOS>ATOM
      1 C1         -0.7091    2.4779   -0.2418 C.3       1 <0>        -0.1820
      2 C2         -0.4078    1.0208   -0.4807 C.2       1 <0>         0.5118
      3 O1         -0.0464    0.3176    0.4391 O.2       1 <0>        -0.5324
      4 N1         -0.5399    0.4990   -1.7163 N.am      1 <0>        -0.7319
      5 C3         -0.2470   -0.9175   -1.9485 C.3       1 <0>         0.1319
      6 H1         -0.4094   -1.1545   -2.9999 H         1 <0>         0.1055
      7 C4          1.2101   -1.2041   -1.5801 C.3       1 <0>        -0.0988
      8 C5          2.1218   -0.4502   -2.5137 C.ar      1 <0>        -0.0283
      9 C6          2.5406   -1.0368   -3.6929 C.ar      1 <0>        -0.1645
     10 C7          3.3787   -0.3452   -4.5513 C.ar      1 <0>         0.1399
     11 C8          3.7967    0.9341   -4.2281 C.ar      1 <0>        -0.1924
     12 C9          3.3762    1.5208   -3.0470 C.ar      1 <0>         0.1386
     13 C10         2.5339    0.8293   -2.1926 C.ar      1 <0>        -0.1582
     14 F1          3.7834    2.7694   -2.7303 F         1 <0>        -0.1260
     15 F2          3.7886   -0.9192   -5.7036 F         1 <0>        -0.1255
     16 C11        -1.1704   -1.7776   -1.0834 C.3       1 <0>         0.0686
     17 H2         -1.0081   -1.5407   -0.0319 H         1 <0>         0.1452
     18 C12        -2.6275   -1.4911   -1.4517 C.3       1 <0>        -0.0569
     19 N2         -3.5162   -2.2259   -0.5417 N.4       1 <0>        -0.4986
     20 C13        -4.9101   -2.0508   -0.9711 C.3       1 <0>         0.1168
     21 C14        -5.2593   -0.5612   -0.9750 C.3       1 <0>        -0.1354
     22 C15        -5.0848    0.0072    0.4348 C.3       1 <0>        -0.1354
     23 C16        -6.0128   -0.7317    1.4011 C.3       1 <0>        -0.1319
     24 C17        -5.6636   -2.2213    1.4049 C.3       1 <0>        -0.1365
     25 C18        -5.8381   -2.7897   -0.0048 C.3       1 <0>        -0.1311
     26 C19        -5.0820   -2.6107   -2.3597 C.ar      1 <0>        -0.0933
     27 C20        -4.2283   -3.5980   -2.8170 C.ar      1 <0>        -0.1677
     28 C21        -4.3830   -4.1145   -4.0901 C.ar      1 <0>        -0.0655
     29 C22        -5.3914   -3.6456   -4.9095 C.ar      1 <0>        -0.1423
     30 C23        -6.2501   -2.6544   -4.4534 C.ar      1 <0>         0.1940
     31 C24        -6.0953   -2.1413   -3.1720 C.ar      1 <0>        -0.1380
     32 N3         -7.2723   -2.1770   -5.2811 N.am      1 <0>        -0.5651
     33 C25        -8.2703   -1.1810   -4.8739 C.3       1 <0>         0.0927
     34 C26        -8.8868   -0.6539   -6.1886 C.3       1 <0>        -0.1327
     35 C27        -8.6521   -1.8448   -7.1465 C.3       1 <0>        -0.1553
     36 C28        -7.4628   -2.5673   -6.5531 C.2       1 <0>         0.5189
     37 O2         -6.7819   -3.3822   -7.1391 O.2       1 <0>        -0.4968
     38 O3         -0.8847   -3.1594   -1.3098 O.3       1 <0>        -0.5423
     39 H3          0.1974    3.0652   -0.3886 H         1 <0>         0.1024
     40 H4         -1.4747    2.8103   -0.9428 H         1 <0>         0.0831
     41 H5         -1.0678    2.6123    0.7786 H         1 <0>         0.0996
     42 H6         -0.8289    1.0614   -2.4519 H         1 <0>         0.4115
     43 H7          1.3952   -0.8843   -0.5546 H         1 <0>         0.1083
     44 H8          1.4035   -2.2731   -1.6679 H         1 <0>         0.1017
     45 H9          2.2143   -2.0350   -3.9449 H         1 <0>         0.1432
     46 H10         4.4507    1.4741   -4.8968 H         1 <0>         0.1523
     47 H11         2.2022    1.2885   -1.2731 H         1 <0>         0.1358
     48 H12        -2.8210   -0.4220   -1.3639 H         1 <0>         0.1410
     49 H13        -2.8127   -1.8108   -2.4772 H         1 <0>         0.1425
     50 H14        -3.2795   -3.2066   -0.5594 H         1 <0>         0.4287
     51 H15        -4.5982   -0.0348   -1.6634 H         1 <0>         0.0893
     52 H16        -6.2936   -0.4313   -1.2936 H         1 <0>         0.1121
     53 H17        -4.0505   -0.1227    0.7534 H         1 <0>         0.0573
     54 H18        -5.3335    1.0684    0.4320 H         1 <0>         0.0945
     55 H19        -5.8884   -0.3268    2.4054 H         1 <0>         0.0828
     56 H20        -7.0470   -0.6018    1.0824 H         1 <0>         0.0802
     57 H21        -4.6293   -2.3512    1.7236 H         1 <0>         0.0583
     58 H22        -6.3247   -2.7477    2.0933 H         1 <0>         0.0960
     59 H23        -6.8724   -2.6598   -0.3235 H         1 <0>         0.1130
     60 H24        -5.5894   -3.8509   -0.0021 H         1 <0>         0.0919
     61 H25        -3.4389   -3.9660   -2.1784 H         1 <0>         0.1186
     62 H26        -3.7145   -4.8852   -4.4445 H         1 <0>         0.1408
     63 H27        -5.5115   -4.0493   -5.9040 H         1 <0>         0.1657
     64 H28        -6.7642   -1.3733   -2.8128 H         1 <0>         0.1369
     65 H29        -9.0388   -1.6472   -4.2573 H         1 <0>         0.0868
     66 H30        -7.7910   -0.3674   -4.3293 H         1 <0>         0.0872
     67 H31        -9.9516   -0.4545   -6.0678 H         1 <0>         0.1031
     68 H32        -8.3619    0.2358   -6.5364 H         1 <0>         0.0897
     69 H33        -9.5266   -2.4951   -7.1681 H         1 <0>         0.1167
     70 H34        -8.4165   -1.4874   -8.1490 H         1 <0>         0.1146
     71 H35        -1.0081   -3.4414   -2.2265 H         1 <0>         0.3869
     72 H36        -3.4060   -1.8702    0.3961 H         1 <0>         0.4277
@<TRIPOS>BOND
     1    1    2 1
     2    1   39 1
     3    1   40 1
     4    1   41 1
     5    2    3 2
     6    2    4 am
     7    4    5 1
     8    4   42 1
     9    5    6 1
    10    5    7 1
    11    5   16 1
    12    7    8 1
    13    7   43 1
    14    7   44 1
    15    8   13 ar
    16    8    9 ar
    17    9   10 ar
    18    9   45 1
    19   10   11 ar
    20   10   15 1
    21   11   12 ar
    22   11   46 1
    23   12   13 ar
    24   12   14 1
    25   13   47 1
    26   16   17 1
    27   16   18 1
    28   16   38 1
    29   18   19 1
    30   18   48 1
    31   18   49 1
    32   19   20 1
    33   19   50 1
    34   19   72 1
    35   20   25 1
    36   20   21 1
    37   20   26 1
    38   21   22 1
    39   21   51 1
    40   21   52 1
    41   22   23 1
    42   22   53 1
    43   22   54 1
    44   23   24 1
    45   23   55 1
    46   23   56 1
    47   24   25 1
    48   24   57 1
    49   24   58 1
    50   25   59 1
    51   25   60 1
    52   26   31 ar
    53   26   27 ar
    54   27   28 ar
    55   27   61 1
    56   28   29 ar
    57   28   62 1
    58   29   30 ar
    59   29   63 1
    60   30   31 ar
    61   30   32 1
    62   31   64 1
    63   32   36 am
    64   32   33 1
    65   33   34 1
    66   33   65 1
    67   33   66 1
    68   34   35 1
    69   34   67 1
    70   34   68 1
    71   35   36 1
    72   35   69 1
    73   35   70 1
    74   36   37 2
    75   38   71 1
@<TRIPOS>MOLECULE
CHEMBL609988
   77    80     0     0     0
SMALL
USER_CHARGES

@<TRIPOS>ATOM
      1 C1         -3.4804   -7.5306   -3.2037 C.3       1 <0>        -0.1842
      2 C2         -2.0366   -7.1263   -3.0519 C.2       1 <0>         0.5138
      3 O1         -1.6148   -6.7788   -1.9693 O.2       1 <0>        -0.5318
      4 N1         -1.2141   -7.1509   -4.1194 N.am      1 <0>        -0.7319
      5 C3          0.1894   -6.7579   -3.9718 C.3       1 <0>         0.1332
      6 H1          0.6933   -6.8413   -4.9348 H         1 <0>         0.1054
      7 C4          0.8726   -7.6774   -2.9575 C.3       1 <0>        -0.0991
      8 C5          0.9071   -9.0838   -3.4979 C.ar      1 <0>        -0.0280
      9 C6         -0.1390   -9.9490   -3.2385 C.ar      1 <0>        -0.1579
     10 C7         -0.1082  -11.2416   -3.7341 C.ar      1 <0>         0.1386
     11 C8          0.9706  -11.6670   -4.4899 C.ar      1 <0>        -0.1924
     12 C9          2.0175  -10.7994   -4.7494 C.ar      1 <0>         0.1397
     13 C10         1.9821   -9.5056   -4.2571 C.ar      1 <0>        -0.1648
     14 F1          3.0710  -11.2132   -5.4870 F         1 <0>        -0.1256
     15 F2         -1.1305  -12.0874   -3.4797 F         1 <0>        -0.1260
     16 C11         0.2650   -5.3110   -3.4803 C.3       1 <0>         0.0671
     17 H2         -0.2389   -5.2276   -2.5173 H         1 <0>         0.1466
     18 C12        -0.4182   -4.3915   -4.4946 C.3       1 <0>        -0.0581
     19 N2         -0.3457   -3.0023   -4.0227 N.4       1 <0>        -0.4972
     20 C13        -1.0761   -2.1306   -4.9525 C.3       1 <0>         0.1158
     21 C14        -0.4463   -2.2224   -6.3473 C.3       1 <0>        -0.1296
     22 C15         1.0625   -2.0215   -6.2124 C.3       1 <0>        -0.0935
     23 C16         1.3583   -0.7764   -5.4210 C.ar      1 <0>         0.2130
     24 C17         0.4181   -0.1661   -4.6188 C.ar      1 <0>        -0.2917
     25 C18         0.7833    0.9776   -3.9182 C.ar      1 <0>         0.2221
     26 N3          2.0114    1.4497   -4.0416 N.ar      1 <0>        -0.5571
     27 C19         2.8910    0.8424   -4.8245 C.ar      1 <0>         0.5823
     28 N4          2.5747   -0.2493   -5.5020 N.ar      1 <0>        -0.5638
     29 N5          4.1692    1.3615   -4.9360 N.pl3     1 <0>        -0.8078
     30 C20        -0.9871   -0.6815   -4.4752 C.3       1 <0>        -0.0642
     31 C21        -2.5207   -2.5551   -5.0157 C.ar      1 <0>        -0.1219
     32 C22        -3.1002   -3.1974   -3.9373 C.ar      1 <0>        -0.1358
     33 C23        -4.4251   -3.5868   -3.9953 C.ar      1 <0>        -0.0952
     34 C24        -5.1710   -3.3335   -5.1315 C.ar      1 <0>        -0.0968
     35 C25        -4.5919   -2.6906   -6.2092 C.ar      1 <0>        -0.0453
     36 C26        -3.2678   -2.2972   -6.1496 C.ar      1 <0>        -0.0859
     37 C27        -5.4048   -2.4149   -7.4479 C.3       1 <0>        -0.0344
     38 C28        -6.8270   -2.9441   -7.2528 C.3       1 <0>        -0.1511
     39 C29        -5.4521   -0.9068   -7.7017 C.3       1 <0>        -0.1428
     40 C30        -4.7605   -3.1139   -8.6468 C.3       1 <0>        -0.1409
     41 O2          1.6340   -4.9276   -3.3364 O.3       1 <0>        -0.5429
     42 H3         -3.9842   -7.4472   -2.2408 H         1 <0>         0.0997
     43 H4         -3.9671   -6.8755   -3.9263 H         1 <0>         0.0911
     44 H5         -3.5342   -8.5614   -3.5539 H         1 <0>         0.0951
     45 H6         -1.5515   -7.4289   -4.9853 H         1 <0>         0.4117
     46 H7          1.8909   -7.3309   -2.7811 H         1 <0>         0.1012
     47 H8          0.3160   -7.6617   -2.0204 H         1 <0>         0.1086
     48 H9         -0.9807   -9.6169   -2.6488 H         1 <0>         0.1362
     49 H10         0.9956  -12.6751   -4.8766 H         1 <0>         0.1522
     50 H11         2.7968   -8.8272   -4.4631 H         1 <0>         0.1430
     51 H12         0.0856   -4.4749   -5.4576 H         1 <0>         0.1375
     52 H13        -1.4625   -4.6839   -4.6044 H         1 <0>         0.1492
     53 H14        -0.7596   -2.9368   -3.1049 H         1 <0>         0.4264
     54 H15        -0.6481   -3.2040   -6.7762 H         1 <0>         0.1057
     55 H16        -0.8632   -1.4464   -6.9892 H         1 <0>         0.1198
     56 H17         1.4968   -2.8828   -5.7049 H         1 <0>         0.0865
     57 H18         1.5042   -1.9312   -7.2048 H         1 <0>         0.1237
     58 H19         0.0697    1.4762   -3.2790 H         1 <0>         0.1755
     59 H20         4.4126    2.1613   -4.4441 H         1 <0>         0.4224
     60 H21         4.8217    0.9254   -5.5062 H         1 <0>         0.4206
     61 H22        -1.6597   -0.0641   -5.0706 H         1 <0>         0.1227
     62 H23        -1.2856   -0.6280   -3.4282 H         1 <0>         0.1002
     63 H24        -2.5176   -3.3953   -3.0498 H         1 <0>         0.1140
     64 H25        -4.8776   -4.0892   -3.1531 H         1 <0>         0.1352
     65 H26        -6.2061   -3.6384   -5.1771 H         1 <0>         0.1396
     66 H27        -2.8163   -1.7915   -6.9903 H         1 <0>         0.1341
     67 H28        -7.2860   -2.4462   -6.3987 H         1 <0>         0.0617
     68 H29        -7.4150   -2.7448   -8.1487 H         1 <0>         0.0668
     69 H30        -6.7933   -4.0185   -7.0720 H         1 <0>         0.0610
     70 H31        -4.4389   -0.5298   -7.8407 H         1 <0>         0.0561
     71 H32        -6.0401   -0.7075   -8.5976 H         1 <0>         0.0670
     72 H33        -5.9111   -0.4089   -6.8476 H         1 <0>         0.0596
     73 H34        -4.7268   -4.1882   -8.4659 H         1 <0>         0.0582
     74 H35        -5.3484   -2.9145   -9.5427 H         1 <0>         0.0669
     75 H36        -3.7473   -2.7368   -8.7857 H         1 <0>         0.0558
     76 H37         2.1447   -4.9776   -4.1560 H         1 <0>         0.3858
     77 H38         0.6197   -2.7123   -3.9778 H         1 <0>         0.4297
@<TRIPOS>BOND
     1    1    2 1
     2    1   42 1
     3    1   43 1
     4    1   44 1
     5    2    3 2
     6    2    4 am
     7    4    5 1
     8    4   45 1
     9    5    6 1
    10    5    7 1
    11    5   16 1
    12    7    8 1
    13    7   46 1
    14    7   47 1
    15    8   13 ar
    16    8    9 ar
    17    9   10 ar
    18    9   48 1
    19   10   11 ar
    20   10   15 1
    21   11   12 ar
    22   11   49 1
    23   12   13 ar
    24   12   14 1
    25   13   50 1
    26   16   17 1
    27   16   18 1
    28   16   41 1
    29   18   19 1
    30   18   51 1
    31   18   52 1
    32   19   20 1
    33   19   53 1
    34   19   77 1
    35   20   30 1
    36   20   21 1
    37   20   31 1
    38   21   22 1
    39   21   54 1
    40   21   55 1
    41   22   23 1
    42   22   56 1
    43   22   57 1
    44   23   28 ar
    45   23   24 ar
    46   24   25 ar
    47   24   30 1
    48   25   26 ar
    49   25   58 1
    50   26   27 ar
    51   27   28 ar
    52   27   29 1
    53   29   59 1
    54   29   60 1
    55   30   61 1
    56   30   62 1
    57   31   36 ar
    58   31   32 ar
    59   32   33 ar
    60   32   63 1
    61   33   34 ar
    62   33   64 1
    63   34   35 ar
    64   34   65 1
    65   35   36 ar
    66   35   37 1
    67   36   66 1
    68   37   38 1
    69   37   39 1
    70   37   40 1
    71   38   67 1
    72   38   68 1
    73   38   69 1
    74   39   70 1
    75   39   71 1
    76   39   72 1
    77   40   73 1
    78   40   74 1
    79   40   75 1
    80   41   76 1
@<TRIPOS>MOLECULE
CHEMBL609988__1
   77    80     0     0     0
SMALL
USER_CHARGES

@<TRIPOS>ATOM
      1 C1         -1.7773    1.9290   -0.4125 C.3       1 <0>        -0.1842
      2 C2         -1.6243    0.4440   -0.2062 C.2       1 <0>         0.5139
      3 O1         -0.5511   -0.0151    0.1229 O.2       1 <0>        -0.5319
      4 N1         -2.6801   -0.3738   -0.3874 N.am      1 <0>        -0.7318
      5 C3         -2.5314   -1.8174   -0.1869 C.3       1 <0>         0.1333
      6 H1         -3.4843   -2.3108   -0.3779 H         1 <0>         0.1048
      7 C4         -2.0959   -2.0899    1.2543 C.3       1 <0>        -0.0989
      8 C5         -3.1915   -1.6669    2.1987 C.ar      1 <0>        -0.0279
      9 C6         -3.2193   -0.3754    2.6899 C.ar      1 <0>        -0.1578
     10 C7         -4.2254    0.0142    3.5580 C.ar      1 <0>         0.1387
     11 C8         -5.2036   -0.8903    3.9334 C.ar      1 <0>        -0.1924
     12 C9         -5.1750   -2.1834    3.4405 C.ar      1 <0>         0.1398
     13 C10        -4.1709   -2.5693    2.5684 C.ar      1 <0>        -0.1649
     14 F1         -6.1291   -3.0673    3.8060 F         1 <0>        -0.1256
     15 F2         -4.2518    1.2765    4.0387 F         1 <0>        -0.1259
     16 C11        -1.4739   -2.3599   -1.1504 C.3       1 <0>         0.0677
     17 H2         -0.5210   -1.8664   -0.9593 H         1 <0>         0.1467
     18 C12        -1.9094   -2.0874   -2.5916 C.3       1 <0>        -0.0570
     19 N2         -0.8941   -2.6083   -3.5167 N.4       1 <0>        -0.4970
     20 C13        -1.2475   -2.2343   -4.8926 C.3       1 <0>         0.1152
     21 C14        -0.2216   -2.8251   -5.8667 C.3       1 <0>        -0.1255
     22 C15        -0.0509   -4.3101   -5.5495 C.3       1 <0>        -0.0976
     23 C16        -1.3907   -4.9919   -5.4877 C.ar      1 <0>         0.2173
     24 C17        -2.5713   -4.2962   -5.3390 C.ar      1 <0>        -0.2936
     25 C18        -3.7623   -5.0110   -5.2848 C.ar      1 <0>         0.2194
     26 N3         -3.7331   -6.3286   -5.3810 N.ar      1 <0>        -0.5575
     27 C19        -2.5820   -6.9680   -5.5278 C.ar      1 <0>         0.5828
     28 N4         -1.4317   -6.3163   -5.5802 N.ar      1 <0>        -0.5628
     29 N5         -2.5829   -8.3484   -5.6285 N.pl3     1 <0>        -0.8073
     30 C20        -2.6253   -2.7967   -5.2399 C.3       1 <0>        -0.0696
     31 C21        -1.2666   -0.7328   -5.0201 C.ar      1 <0>        -0.1210
     32 C22        -0.5213    0.0442   -4.1528 C.ar      1 <0>        -0.1368
     33 C23        -0.5389    1.4213   -4.2697 C.ar      1 <0>        -0.0942
     34 C24        -1.3015    2.0217   -5.2544 C.ar      1 <0>        -0.0973
     35 C25        -2.0458    1.2450   -6.1220 C.ar      1 <0>        -0.0445
     36 C26        -2.0249   -0.1327   -6.0077 C.ar      1 <0>        -0.0872
     37 C27        -2.8774    1.8995   -7.1949 C.3       1 <0>        -0.0345
     38 C28        -2.7213    3.4189   -7.1053 C.3       1 <0>        -0.1510
     39 C29        -2.4070    1.4187   -8.5691 C.3       1 <0>        -0.1429
     40 C30        -4.3480    1.5255   -6.9996 C.3       1 <0>        -0.1410
     41 O2         -1.3288   -3.7680   -0.9547 O.3       1 <0>        -0.5430
     42 H3         -0.8243    2.4224   -0.2214 H         1 <0>         0.0997
     43 H4         -2.0875    2.1231   -1.4392 H         1 <0>         0.0911
     44 H5         -2.5306    2.3155    0.2739 H         1 <0>         0.0951
     45 H6         -3.5385   -0.0066   -0.6507 H         1 <0>         0.4116
     46 H7         -1.8994   -3.1547    1.3794 H         1 <0>         0.1008
     47 H8         -1.1896   -1.5250    1.4730 H         1 <0>         0.1088
     48 H9         -2.4560    0.3302    2.3968 H         1 <0>         0.1363
     49 H10        -5.9884   -0.5874    4.6108 H         1 <0>         0.1522
     50 H11        -4.1509   -3.5769    2.1801 H         1 <0>         0.1427
     51 H12        -2.8623   -2.5809   -2.7826 H         1 <0>         0.1375
     52 H13        -2.0201   -1.0134   -2.7408 H         1 <0>         0.1484
     53 H14         0.0062   -2.2176   -3.2826 H         1 <0>         0.4263
     54 H15        -0.5784   -2.7079   -6.8899 H         1 <0>         0.1195
     55 H16         0.7333   -2.3131   -5.7479 H         1 <0>         0.1077
     56 H17         0.5557   -4.7770   -6.3255 H         1 <0>         0.1247
     57 H18         0.4529   -4.4178   -4.5889 H         1 <0>         0.0910
     58 H19        -4.7030   -4.4942   -5.1647 H         1 <0>         0.1736
     59 H20        -3.4201   -8.8369   -5.5914 H         1 <0>         0.4223
     60 H21        -1.7462   -8.8273   -5.7362 H         1 <0>         0.4212
     61 H22        -3.3367   -2.5120   -4.4646 H         1 <0>         0.0987
     62 H23        -2.9528   -2.3844   -6.1943 H         1 <0>         0.1217
     63 H24         0.0743   -0.4249   -3.3837 H         1 <0>         0.1138
     64 H25         0.0427    2.0282   -3.5918 H         1 <0>         0.1354
     65 H26        -1.3158    3.0978   -5.3453 H         1 <0>         0.1397
     66 H27        -2.6036   -0.7399   -6.6881 H         1 <0>         0.1343
     67 H28        -1.6735    3.6853   -7.2445 H         1 <0>         0.0617
     68 H29        -3.3227    3.8923   -7.8813 H         1 <0>         0.0668
     69 H30        -3.0563    3.7615   -6.1263 H         1 <0>         0.0611
     70 H31        -2.5183    0.3362   -8.6329 H         1 <0>         0.0560
     71 H32        -3.0085    1.8921   -9.3451 H         1 <0>         0.0671
     72 H33        -1.3593    1.6851   -8.7083 H         1 <0>         0.0597
     73 H34        -4.6831    1.8681   -6.0206 H         1 <0>         0.0584
     74 H35        -4.9495    1.9990   -7.7756 H         1 <0>         0.0670
     75 H36        -4.4593    0.4431   -7.0634 H         1 <0>         0.0557
     76 H37        -2.1398   -4.2720   -1.1079 H         1 <0>         0.3857
     77 H38        -0.8544   -3.6137   -3.4411 H         1 <0>         0.4297
@<TRIPOS>BOND
     1    1    2 1
     2    1   42 1
     3    1   43 1
     4    1   44 1
     5    2    3 2
     6    2    4 am
     7    4    5 1
     8    4   45 1
     9    5    6 1
    10    5    7 1
    11    5   16 1
    12    7    8 1
    13    7   46 1
    14    7   47 1
    15    8   13 ar
    16    8    9 ar
    17    9   10 ar
    18    9   48 1
    19   10   11 ar
    20   10   15 1
    21   11   12 ar
    22   11   49 1
    23   12   13 ar
    24   12   14 1
    25   13   50 1
    26   16   17 1
    27   16   18 1
    28   16   41 1
    29   18   19 1
    30   18   51 1
    31   18   52 1
    32   19   20 1
    33   19   53 1
    34   19   77 1
    35   20   30 1
    36   20   21 1
    37   20   31 1
    38   21   22 1
    39   21   54 1
    40   21   55 1
    41   22   23 1
    42   22   56 1
    43   22   57 1
    44   23   28 ar
    45   23   24 ar
    46   24   25 ar
    47   24   30 1
    48   25   26 ar
    49   25   58 1
    50   26   27 ar
    51   27   28 ar
    52   27   29 1
    53   29   59 1
    54   29   60 1
    55   30   61 1
    56   30   62 1
    57   31   36 ar
    58   31   32 ar
    59   32   33 ar
    60   32   63 1
    61   33   34 ar
    62   33   64 1
    63   34   35 ar
    64   34   65 1
    65   35   36 ar
    66   35   37 1
    67   36   66 1
    68   37   38 1
    69   37   39 1
    70   37   40 1
    71   38   67 1
    72   38   68 1
    73   38   69 1
    74   39   70 1
    75   39   71 1
    76   39   72 1
    77   40   73 1
    78   40   74 1
    79   40   75 1
    80   41   76 1
@<TRIPOS>MOLECULE
CHEMBL583875
   89    93     0     0     0
SMALL
USER_CHARGES

@<TRIPOS>ATOM
      1 C1          9.2429   -9.4150   -4.0450 C.3       1 <0>        -0.1535
      2 C2          7.8471   -9.2557   -3.4390 C.3       1 <0>        -0.1261
      3 C3          7.8019   -7.9839   -2.5896 C.3       1 <0>        -0.1274
      4 C4          6.4479   -7.8901   -1.8835 C.3       1 <0>         0.1206
      5 H1          6.2825   -8.7668   -1.2573 H         1 <0>         0.0956
      6 C5          6.3645   -6.6013   -1.0427 C.3       1 <0>         0.0958
      7 N1          5.2416   -5.8631   -1.6398 N.am      1 <0>        -0.6297
      8 C6          4.7376   -6.5752   -2.6563 C.2       1 <0>         0.7009
      9 O1          3.7975   -6.1975   -3.3284 O.2       1 <0>        -0.5813
     10 N2          5.3627   -7.7449   -2.8653 N.am      1 <0>        -0.7339
     11 C7          4.7518   -4.5564   -1.1938 C.3       1 <0>         0.1837
     12 C8          5.5641   -3.4666   -1.8447 C.ar      1 <0>        -0.0804
     13 C9          6.7610   -3.0662   -1.2809 C.ar      1 <0>        -0.1010
     14 C10         7.5061   -2.0666   -1.8779 C.ar      1 <0>        -0.1068
     15 C11         7.0545   -1.4677   -3.0391 C.ar      1 <0>        -0.1403
     16 C12         5.8580   -1.8688   -3.6034 C.ar      1 <0>        -0.0836
     17 C13         5.1151   -2.8714   -3.0087 C.ar      1 <0>        -0.0875
     18 C14         7.8663   -0.3772   -3.6894 C.3       1 <0>         0.1411
     19 N3          7.5431    0.9092   -3.0674 N.am      1 <0>        -0.5485
     20 C15         6.5039    1.6868   -3.4253 C.2       1 <0>         0.5387
     21 O2          5.6908    1.4558   -4.2947 O.2       1 <0>        -0.3989
     22 C16         6.5494    2.9059   -2.5291 C.3       1 <0>         0.1278
     23 N4          7.7210    2.6825   -1.6666 N.pl3     1 <0>        -0.6572
     24 C17         8.2577    1.4750   -2.0398 C.cat     1 <0>         0.7282
     25 N5          9.3097    0.9375   -1.4927 N.pl3     1 <0>        -0.7418
     26 C18         5.2754    2.9980   -1.6869 C.3       1 <0>        -0.1236
     27 C19         5.1473    1.7457   -0.8173 C.3       1 <0>        -0.1216
     28 C20         3.8116    1.7771   -0.0717 C.3       1 <0>        -0.0849
     29 C21         3.8105    2.9388    0.9240 C.3       1 <0>        -0.1139
     30 C22         2.4748    2.9701    1.6696 C.3       1 <0>        -0.1228
     31 C23         2.2801    1.6527    2.4228 C.3       1 <0>        -0.1218
     32 C24         2.2812    0.4910    1.4271 C.3       1 <0>        -0.1219
     33 C25         3.6169    0.4596    0.6815 C.3       1 <0>        -0.1104
     34 C26         6.7337    4.1755   -3.3627 C.3       1 <0>        -0.1175
     35 C27         7.9798    4.0339   -4.2390 C.3       1 <0>        -0.0957
     36 C28         9.2304    4.0812   -3.3588 C.3       1 <0>        -0.1279
     37 C29        10.4765    3.9396   -4.2351 C.3       1 <0>        -0.1207
     38 C30        10.5215    5.0864   -5.2469 C.3       1 <0>        -0.1230
     39 C31         9.2709    5.0391   -6.1272 C.3       1 <0>        -0.1225
     40 C32         8.0248    5.1807   -5.2509 C.3       1 <0>        -0.1135
     41 H2          9.4329   -8.5967   -4.7396 H         1 <0>         0.0527
     42 H3          9.9884   -9.3972   -3.2500 H         1 <0>         0.0558
     43 H4          9.3018  -10.3644   -4.5772 H         1 <0>         0.0581
     44 H5          7.1097   -9.1850   -4.2386 H         1 <0>         0.0619
     45 H6          7.6222  -10.1191   -2.8128 H         1 <0>         0.0665
     46 H7          8.5981   -8.0153   -1.8459 H         1 <0>         0.0795
     47 H8          7.9382   -7.1134   -3.2313 H         1 <0>         0.0675
     48 H9          6.1552   -6.8380    0.0005 H         1 <0>         0.0852
     49 H10         7.2877   -6.0283   -1.1282 H         1 <0>         0.0806
     50 H11         5.1368   -8.3906   -3.5529 H         1 <0>         0.4310
     51 H12         3.7044   -4.4458   -1.4745 H         1 <0>         0.1005
     52 H13         4.8473   -4.4830   -0.1105 H         1 <0>         0.0925
     53 H14         7.1138   -3.5341   -0.3737 H         1 <0>         0.1293
     54 H15         8.4409   -1.7532   -1.4370 H         1 <0>         0.1146
     55 H16         5.5050   -1.4006   -4.5104 H         1 <0>         0.1316
     56 H17         4.1821   -3.1873   -3.4517 H         1 <0>         0.1362
     57 H18         8.9278   -0.5875   -3.5588 H         1 <0>         0.1102
     58 H19         7.6324   -0.3354   -4.7532 H         1 <0>         0.1302
     59 H20         8.0478    3.2713   -0.9684 H         1 <0>         0.4616
     60 H21         9.6365    0.0807   -1.8088 H         1 <0>         0.4447
     61 H22         5.3249    3.8802   -1.0486 H         1 <0>         0.1045
     62 H23         4.4096    3.0736   -2.3448 H         1 <0>         0.1089
     63 H24         5.1899    0.8586   -1.4492 H         1 <0>         0.0604
     64 H25         5.9649    1.7184   -0.0969 H         1 <0>         0.0637
     65 H26         2.9995    1.9104   -0.7865 H         1 <0>         0.0768
     66 H27         4.6225    2.8054    1.6388 H         1 <0>         0.0604
     67 H28         3.9492    3.8774    0.3875 H         1 <0>         0.0622
     68 H29         2.4740    3.7977    2.3790 H         1 <0>         0.0645
     69 H30         1.6627    3.1035    0.9548 H         1 <0>         0.0639
     70 H31         3.0921    1.5193    3.1375 H         1 <0>         0.0605
     71 H32         1.3285    1.6750    2.9539 H         1 <0>         0.0646
     72 H33         2.1425   -0.4476    1.9636 H         1 <0>         0.0641
     73 H34         1.4692    0.6243    0.7123 H         1 <0>         0.0637
     74 H35         3.6177   -0.3680   -0.0279 H         1 <0>         0.0598
     75 H36         4.4289    0.3263    1.3963 H         1 <0>         0.0590
     76 H37         5.8591    4.3245   -3.9960 H         1 <0>         0.1102
     77 H38         6.8517    5.0320   -2.6989 H         1 <0>         0.1038
     78 H39         7.9447    3.0824   -4.7696 H         1 <0>         0.0653
     79 H40         9.2655    5.0327   -2.8282 H         1 <0>         0.0757
     80 H41         9.1983    3.2642   -2.6379 H         1 <0>         0.0456
     81 H42        11.3674    3.9733   -3.6080 H         1 <0>         0.0653
     82 H43        10.4414    2.9881   -4.7656 H         1 <0>         0.0575
     83 H44        10.5566    6.0379   -4.7164 H         1 <0>         0.0661
     84 H45        11.4093    4.9855   -5.8712 H         1 <0>         0.0669
     85 H46         9.3029    5.8561   -6.8480 H         1 <0>         0.0706
     86 H47         9.2358    4.0876   -6.6577 H         1 <0>         0.0612
     87 H48         7.1339    5.1470   -5.8780 H         1 <0>         0.0700
     88 H49         8.0599    6.1322   -4.7203 H         1 <0>         0.0709
     89 H50         9.7667    1.3939   -0.7690 H         1 <0>         0.4505
@<TRIPOS>BOND
     1    1    2 1
     2    1   41 1
     3    1   42 1
     4    1   43 1
     5    2    3 1
     6    2   44 1
     7    2   45 1
     8    3    4 1
     9    3   46 1
    10    3   47 1
    11    4    5 1
    12    4   10 1
    13    4    6 1
    14    6    7 1
    15    6   48 1
    16    6   49 1
    17    7    8 am
    18    7   11 1
    19    8    9 2
    20    8   10 am
    21   10   50 1
    22   11   12 1
    23   11   51 1
    24   11   52 1
    25   12   17 ar
    26   12   13 ar
    27   13   14 ar
    28   13   53 1
    29   14   15 ar
    30   14   54 1
    31   15   16 ar
    32   15   18 1
    33   16   17 ar
    34   16   55 1
    35   17   56 1
    36   18   19 1
    37   18   57 1
    38   18   58 1
    39   19   24 1
    40   19   20 am
    41   20   21 2
    42   20   22 1
    43   22   23 1
    44   22   26 1
    45   22   34 1
    46   23   24 1
    47   23   59 1
    48   24   25 2
    49   25   60 1
    50   25   89 1
    51   26   27 1
    52   26   61 1
    53   26   62 1
    54   27   28 1
    55   27   63 1
    56   27   64 1
    57   28   33 1
    58   28   29 1
    59   28   65 1
    60   29   30 1
    61   29   66 1
    62   29   67 1
    63   30   31 1
    64   30   68 1
    65   30   69 1
    66   31   32 1
    67   31   70 1
    68   31   71 1
    69   32   33 1
    70   32   72 1
    71   32   73 1
    72   33   74 1
    73   33   75 1
    74   34   35 1
    75   34   76 1
    76   34   77 1
    77   35   40 1
    78   35   36 1
    79   35   78 1
    80   36   37 1
    81   36   79 1
    82   36   80 1
    83   37   38 1
    84   37   81 1
    85   37   82 1
    86   38   39 1
    87   38   83 1
    88   38   84 1
    89   39   40 1
    90   39   85 1
    91   39   86 1
    92   40   87 1
    93   40   88 1
@<TRIPOS>MOLECULE
CHEMBL583875__1
   89    93     0     0     0
SMALL
USER_CHARGES

@<TRIPOS>ATOM
      1 C1          9.5980   -9.4282   -4.0198 C.3       1 <0>        -0.1535
      2 C2          8.1002   -9.2586   -3.7575 C.3       1 <0>        -0.1261
      3 C3          7.8748   -8.0433   -2.8558 C.3       1 <0>        -0.1273
      4 C4          6.3922   -7.9474   -2.4903 C.3       1 <0>         0.1205
      5 H1          6.0593   -8.8638   -2.0030 H         1 <0>         0.0955
      6 C5          6.1366   -6.7285   -1.5827 C.3       1 <0>         0.0959
      7 N1          5.2100   -5.8957   -2.3638 N.am      1 <0>        -0.6293
      8 C6          4.9522   -6.5002   -3.5310 C.2       1 <0>         0.7010
      9 O1          4.2127   -6.0283   -4.3729 O.2       1 <0>        -0.5814
     10 N2          5.5821   -7.6755   -3.6871 N.am      1 <0>        -0.7340
     11 C7          4.6568   -4.6091   -1.9339 C.3       1 <0>         0.1832
     12 C8          5.6273   -3.5068   -2.2719 C.ar      1 <0>        -0.0784
     13 C9          6.6592   -3.2040   -1.4033 C.ar      1 <0>        -0.0985
     14 C10         7.5494   -2.1930   -1.7133 C.ar      1 <0>        -0.1059
     15 C11         7.4081   -1.4850   -2.8922 C.ar      1 <0>        -0.1374
     16 C12         6.3768   -1.7884   -3.7612 C.ar      1 <0>        -0.0815
     17 C13         5.4891   -2.8024   -3.4532 C.ar      1 <0>        -0.0860
     18 C14         8.3780   -0.3821   -3.2297 C.3       1 <0>         0.1386
     19 N3          7.9541    0.8582   -2.5754 N.am      1 <0>        -0.5518
     20 C15         7.1011    1.7492   -3.1150 C.2       1 <0>         0.5444
     21 O2          6.5611    1.6722   -4.1980 O.2       1 <0>        -0.4023
     22 C16         6.9480    2.8655   -2.1043 C.3       1 <0>         0.1264
     23 N4          7.8103    2.4634   -0.9813 N.pl3     1 <0>        -0.6595
     24 C17         8.3711    1.2594   -1.3296 C.cat     1 <0>         0.7267
     25 N5          9.1939    0.5868   -0.5777 N.pl3     1 <0>        -0.7415
     26 C18         7.4262    4.1925   -2.6970 C.3       1 <0>        -0.1236
     27 C19         8.8957    4.0689   -3.1045 C.3       1 <0>        -0.1235
     28 C20         9.3740    5.3959   -3.6972 C.3       1 <0>        -0.0842
     29 C21         8.6160    5.6769   -4.9962 C.3       1 <0>        -0.1175
     30 C22         9.0943    7.0039   -5.5889 C.3       1 <0>        -0.1219
     31 C23        10.5938    6.9209   -5.8811 C.3       1 <0>        -0.1232
     32 C24        11.3518    6.6399   -4.5821 C.3       1 <0>        -0.1215
     33 C25        10.8735    5.3130   -3.9894 C.3       1 <0>        -0.1130
     34 C26         5.4921    2.9767   -1.6471 C.3       1 <0>        -0.1207
     35 C27         5.1126    1.7298   -0.8457 C.3       1 <0>        -0.0941
     36 C28         4.9868    0.5341   -1.7919 C.3       1 <0>        -0.1316
     37 C29         4.6073   -0.7127   -0.9906 C.3       1 <0>        -0.1164
     38 C30         3.2703   -0.4780   -0.2848 C.3       1 <0>        -0.1235
     39 C31         3.3961    0.7177    0.6615 C.3       1 <0>        -0.1190
     40 C32         3.7756    1.9646   -0.1399 C.3       1 <0>        -0.1126
     41 H2          9.9664   -8.5739   -4.5877 H         1 <0>         0.0527
     42 H3         10.1286   -9.4891   -3.0697 H         1 <0>         0.0557
     43 H4          9.7659  -10.3425   -4.5890 H         1 <0>         0.0581
     44 H5          7.5801   -9.1102   -4.7039 H         1 <0>         0.0619
     45 H6          7.7138  -10.1519   -3.2667 H         1 <0>         0.0664
     46 H7          8.4668   -8.1505   -1.9469 H         1 <0>         0.0793
     47 H8          8.1784   -7.1387   -3.3826 H         1 <0>         0.0677
     48 H9          5.6744   -7.0394   -0.6457 H         1 <0>         0.0850
     49 H10         7.0659   -6.1917   -1.3923 H         1 <0>         0.0807
     50 H11         5.5154   -8.2529   -4.4637 H         1 <0>         0.4310
     51 H12         3.7115   -4.4306   -2.4463 H         1 <0>         0.1001
     52 H13         4.4886   -4.6275   -0.8571 H         1 <0>         0.0922
     53 H14         6.7696   -3.7571   -0.4822 H         1 <0>         0.1287
     54 H15         8.3551   -1.9559   -1.0343 H         1 <0>         0.1124
     55 H16         6.2662   -1.2351   -4.6821 H         1 <0>         0.1306
     56 H17         4.6856   -3.0419   -4.1339 H         1 <0>         0.1356
     57 H18         9.3741   -0.6549   -2.8809 H         1 <0>         0.1110
     58 H19         8.3990   -0.2345   -4.3094 H         1 <0>         0.1317
     59 H20         7.9519    2.9517   -0.1551 H         1 <0>         0.4610
     60 H21         9.5548   -0.2581   -0.8888 H         1 <0>         0.4441
     61 H22         6.8255    4.4366   -3.5732 H         1 <0>         0.1114
     62 H23         7.3207    4.9819   -1.9528 H         1 <0>         0.1032
     63 H24         9.4964    3.8249   -2.2283 H         1 <0>         0.0629
     64 H25         9.0013    3.2796   -3.8487 H         1 <0>         0.0608
     65 H26         9.1864    6.2002   -2.9858 H         1 <0>         0.0772
     66 H27         8.8036    4.8726   -5.7076 H         1 <0>         0.0624
     67 H28         7.5477    5.7360   -4.7880 H         1 <0>         0.0636
     68 H29         8.5543    7.2040   -6.5144 H         1 <0>         0.0654
     69 H30         8.9067    7.8081   -4.8776 H         1 <0>         0.0634
     70 H31        10.7814    6.1166   -6.5925 H         1 <0>         0.0616
     71 H32        10.9345    7.8663   -6.3034 H         1 <0>         0.0651
     72 H33        12.4201    6.5809   -4.7903 H         1 <0>         0.0644
     73 H34        11.1642    7.4442   -3.8708 H         1 <0>         0.0634
     74 H35        11.4135    5.1128   -3.0640 H         1 <0>         0.0591
     75 H36        11.0611    4.5087   -4.7008 H         1 <0>         0.0608
     76 H37         5.3745    3.8609   -1.0207 H         1 <0>         0.1034
     77 H38         4.8429    3.0599   -2.5187 H         1 <0>         0.1080
     78 H39         5.8844    1.5261   -0.1035 H         1 <0>         0.0671
     79 H40         4.2150    0.7378   -2.5342 H         1 <0>         0.0725
     80 H41         5.9393    0.3669   -2.2947 H         1 <0>         0.0556
     81 H42         4.5177   -1.5646   -1.6647 H         1 <0>         0.0729
     82 H43         5.3791   -0.9164   -0.2483 H         1 <0>         0.0543
     83 H44         2.4985   -0.2743   -1.0270 H         1 <0>         0.0648
     84 H45         2.9999   -1.3663    0.2861 H         1 <0>         0.0647
     85 H46         2.4436    0.8849    1.1643 H         1 <0>         0.0682
     86 H47         4.1679    0.5140    1.4037 H         1 <0>         0.0586
     87 H48         3.8652    2.8164    0.5342 H         1 <0>         0.0671
     88 H49         3.0038    2.1682   -0.8822 H         1 <0>         0.0701
     89 H50         9.4461    0.9305    0.2936 H         1 <0>         0.4503
@<TRIPOS>BOND
     1    1    2 1
     2    1   41 1
     3    1   42 1
     4    1   43 1
     5    2    3 1
     6    2   44 1
     7    2   45 1
     8    3    4 1
     9    3   46 1
    10    3   47 1
    11    4    5 1
    12    4   10 1
    13    4    6 1
    14    6    7 1
    15    6   48 1
    16    6   49 1
    17    7    8 am
    18    7   11 1
    19    8    9 2
    20    8   10 am
    21   10   50 1
    22   11   12 1
    23   11   51 1
    24   11   52 1
    25   12   17 ar
    26   12   13 ar
    27   13   14 ar
    28   13   53 1
    29   14   15 ar
    30   14   54 1
    31   15   16 ar
    32   15   18 1
    33   16   17 ar
    34   16   55 1
    35   17   56 1
    36   18   19 1
    37   18   57 1
    38   18   58 1
    39   19   24 1
    40   19   20 am
    41   20   21 2
    42   20   22 1
    43   22   23 1
    44   22   26 1
    45   22   34 1
    46   23   24 1
    47   23   59 1
    48   24   25 2
    49   25   60 1
    50   25   89 1
    51   26   27 1
    52   26   61 1
    53   26   62 1
    54   27   28 1
    55   27   63 1
    56   27   64 1
    57   28   33 1
    58   28   29 1
    59   28   65 1
    60   29   30 1
    61   29   66 1
    62   29   67 1
    63   30   31 1
    64   30   68 1
    65   30   69 1
    66   31   32 1
    67   31   70 1
    68   31   71 1
    69   32   33 1
    70   32   72 1
    71   32   73 1
    72   33   74 1
    73   33   75 1
    74   34   35 1
    75   34   76 1
    76   34   77 1
    77   35   40 1
    78   35   36 1
    79   35   78 1
    80   36   37 1
    81   36   79 1
    82   36   80 1
    83   37   38 1
    84   37   81 1
    85   37   82 1
    86   38   39 1
    87   38   83 1
    88   38   84 1
    89   39   40 1
    90   39   85 1
    91   39   86 1
    92   40   87 1
    93   40   88 1
@<TRIPOS>MOLECULE
CHEMBL1209104
   74    77     0     0     0
SMALL
USER_CHARGES

@<TRIPOS>ATOM
      1 C1         -0.6772    2.5667   -0.4738 C.3       1 <0>        -0.1821
      2 C2         -0.3725    1.1055   -0.6815 C.2       1 <0>         0.5119
      3 O1          0.0123    0.4282    0.2482 O.2       1 <0>        -0.5325
      4 N1         -0.5275    0.5513   -1.9002 N.am      1 <0>        -0.7320
      5 C3         -0.2313   -0.8692   -2.1020 C.3       1 <0>         0.1325
      6 H1         -0.4144   -1.1341   -3.1434 H         1 <0>         0.1051
      7 C4          1.2348   -1.1384   -1.7574 C.3       1 <0>        -0.0989
      8 C5          2.1223   -0.4041   -2.7292 C.ar      1 <0>        -0.0282
      9 C6          2.5195   -1.0187   -3.9016 C.ar      1 <0>        -0.1647
     10 C7          3.3353   -0.3451   -4.7951 C.ar      1 <0>         0.1398
     11 C8          3.7525    0.9444   -4.5138 C.ar      1 <0>        -0.1923
     12 C9          3.3536    1.5591   -3.3395 C.ar      1 <0>         0.1388
     13 C10         2.5336    0.8855   -2.4499 C.ar      1 <0>        -0.1581
     14 F1          3.7601    2.8177   -3.0637 F         1 <0>        -0.1259
     15 F2          3.7242   -0.9464   -5.9406 F         1 <0>        -0.1255
     16 C11        -1.1312   -1.7116   -1.1957 C.3       1 <0>         0.0682
     17 H2         -0.9482   -1.4466   -0.1543 H         1 <0>         0.1451
     18 C12        -2.5974   -1.4424   -1.5403 C.3       1 <0>        -0.0555
     19 N2         -3.4625   -2.1581   -0.5930 N.4       1 <0>        -0.4990
     20 C13        -4.8660   -2.0019   -0.9973 C.3       1 <0>         0.1163
     21 C14        -5.2278   -0.5154   -1.0199 C.3       1 <0>        -0.1359
     22 C15        -5.0300    0.0789    0.3760 C.3       1 <0>        -0.1353
     23 C16        -5.9322   -0.6505    1.3734 C.3       1 <0>        -0.1321
     24 C17        -5.5705   -2.1369    1.3960 C.3       1 <0>        -0.1364
     25 C18        -5.7683   -2.7312    0.0001 C.3       1 <0>        -0.1311
     26 C19        -5.0609   -2.5872   -2.3722 C.ar      1 <0>        -0.1206
     27 C20        -4.2290   -3.5976   -2.8176 C.ar      1 <0>        -0.1421
     28 C21        -4.4077   -4.1345   -4.0786 C.ar      1 <0>        -0.0961
     29 C22        -5.4187   -3.6614   -4.8945 C.ar      1 <0>        -0.0931
     30 C23        -6.2510   -2.6519   -4.4488 C.ar      1 <0>        -0.0473
     31 C24        -6.0749   -2.1178   -3.1858 C.ar      1 <0>        -0.0918
     32 C25        -7.3527   -2.1359   -5.3383 C.3       1 <0>        -0.0615
     33 C26        -8.2857   -3.2936   -5.7495 C.3       1 <0>        -0.1183
     34 C27        -8.6681   -2.9707   -7.2154 C.3       1 <0>        -0.1282
     35 C28        -7.3500   -2.3998   -7.7947 C.3       1 <0>        -0.1279
     36 C29        -6.7577   -1.5677   -6.6386 C.3       1 <0>        -0.1169
     37 O2         -0.8423   -3.0971   -1.3925 O.3       1 <0>        -0.5423
     38 H3          0.2226    3.1548   -0.6548 H         1 <0>         0.1025
     39 H4         -1.4594    2.8768   -1.1667 H         1 <0>         0.0834
     40 H5         -1.0151    2.7255    0.5502 H         1 <0>         0.0997
     41 H6         -0.8353    1.0930   -2.6437 H         1 <0>         0.4117
     42 H7          1.4397   -0.7913   -0.7446 H         1 <0>         0.1084
     43 H8          1.4327   -2.2083   -1.8218 H         1 <0>         0.1015
     44 H9          2.1939   -2.0248   -4.1209 H         1 <0>         0.1430
     45 H10         4.3891    1.4704   -5.2099 H         1 <0>         0.1523
     46 H11         2.2186    1.3665   -1.5357 H         1 <0>         0.1359
     47 H12        -2.7952   -0.3724   -1.4759 H         1 <0>         0.1410
     48 H13        -2.8023   -1.7894   -2.5530 H         1 <0>         0.1414
     49 H14        -3.2203   -3.1376   -0.5904 H         1 <0>         0.4276
     50 H15        -4.5850    0.0042   -1.7304 H         1 <0>         0.0889
     51 H16        -6.2693   -0.3994   -1.3199 H         1 <0>         0.1136
     52 H17        -3.9885   -0.0371    0.6760 H         1 <0>         0.0566
     53 H18        -5.2877    1.1379    0.3600 H         1 <0>         0.0944
     54 H19        -5.7913   -0.2271    2.3679 H         1 <0>         0.0825
     55 H20        -6.9737   -0.5345    1.0734 H         1 <0>         0.0805
     56 H21        -4.5290   -2.2529    1.6960 H         1 <0>         0.0577
     57 H22        -6.2133   -2.6566    2.1066 H         1 <0>         0.0956
     58 H23        -6.8098   -2.6153   -0.2999 H         1 <0>         0.1133
     59 H24        -5.5106   -3.7902    0.0162 H         1 <0>         0.0905
     60 H25        -3.4392   -3.9672   -2.1804 H         1 <0>         0.1165
     61 H26        -3.7574   -4.9233   -4.4268 H         1 <0>         0.1357
     62 H27        -5.5579   -4.0804   -5.8801 H         1 <0>         0.1345
     63 H28        -6.7276   -1.3316   -2.8361 H         1 <0>         0.1331
     64 H29        -7.9207   -1.3640   -4.8190 H         1 <0>         0.0838
     65 H30        -7.7590   -4.2462   -5.6937 H         1 <0>         0.0697
     66 H31        -9.1741   -3.3102   -5.1183 H         1 <0>         0.0701
     67 H32        -8.9631   -3.8760   -7.7459 H         1 <0>         0.0718
     68 H33        -9.4615   -2.2242   -7.2521 H         1 <0>         0.0711
     69 H34        -6.6722   -3.2082   -8.0691 H         1 <0>         0.0663
     70 H35        -7.5556   -1.7642   -8.6560 H         1 <0>         0.0707
     71 H36        -7.0378   -0.5202   -6.7508 H         1 <0>         0.0700
     72 H37        -5.6722   -1.6651   -6.6264 H         1 <0>         0.0651
     73 H38        -0.9833   -3.4034   -2.2989 H         1 <0>         0.3863
     74 H39        -3.3347   -1.7776    0.3327 H         1 <0>         0.4273
@<TRIPOS>BOND
     1    1    2 1
     2    1   38 1
     3    1   39 1
     4    1   40 1
     5    2    3 2
     6    2    4 am
     7    4    5 1
     8    4   41 1
     9    5    6 1
    10    5    7 1
    11    5   16 1
    12    7    8 1
    13    7   42 1
    14    7   43 1
    15    8   13 ar
    16    8    9 ar
    17    9   10 ar
    18    9   44 1
    19   10   11 ar
    20   10   15 1
    21   11   12 ar
    22   11   45 1
    23   12   13 ar
    24   12   14 1
    25   13   46 1
    26   16   17 1
    27   16   18 1
    28   16   37 1
    29   18   19 1
    30   18   47 1
    31   18   48 1
    32   19   20 1
    33   19   49 1
    34   19   74 1
    35   20   25 1
    36   20   21 1
    37   20   26 1
    38   21   22 1
    39   21   50 1
    40   21   51 1
    41   22   23 1
    42   22   52 1
    43   22   53 1
    44   23   24 1
    45   23   54 1
    46   23   55 1
    47   24   25 1
    48   24   56 1
    49   24   57 1
    50   25   58 1
    51   25   59 1
    52   26   31 ar
    53   26   27 ar
    54   27   28 ar
    55   27   60 1
    56   28   29 ar
    57   28   61 1
    58   29   30 ar
    59   29   62 1
    60   30   31 ar
    61   30   32 1
    62   31   63 1
    63   32   36 1
    64   32   33 1
    65   32   64 1
    66   33   34 1
    67   33   65 1
    68   33   66 1
    69   34   35 1
    70   34   67 1
    71   34   68 1
    72   35   36 1
    73   35   69 1
    74   35   70 1
    75   36   71 1
    76   36   72 1
    77   37   73 1
@<TRIPOS>MOLECULE
CHEMBL605967
   80    82     0     0     0
SMALL
USER_CHARGES

@<TRIPOS>ATOM
      1 C1         -1.3599    0.1747   -1.4452 C.3       1 <0>        -0.1501
      2 C2         -0.9177   -1.2850   -1.5667 C.3       1 <0>        -0.1393
      3 C3         -2.0424   -2.2008   -1.0797 C.3       1 <0>         0.1145
      4 N1         -1.6190   -3.5984   -1.1960 N.am      1 <0>        -0.6068
      5 C4         -0.9347   -4.2520   -0.0776 C.3       1 <0>         0.0941
      6 C5         -1.9407   -4.5374    1.0393 C.3       1 <0>        -0.1484
      7 C6         -1.2596   -5.3467    2.1447 C.3       1 <0>        -0.1532
      8 C7         -1.8590   -4.2830   -2.3319 C.2       1 <0>         0.5587
      9 O1         -2.3679   -3.7229   -3.2830 O.2       1 <0>        -0.5227
     10 C8         -1.5031   -5.7154   -2.4210 C.ar      1 <0>        -0.1353
     11 C9         -1.7437   -6.5652   -1.3386 C.ar      1 <0>        -0.0719
     12 C10        -1.4120   -7.9028   -1.4202 C.ar      1 <0>        -0.1296
     13 C11        -0.8408   -8.4100   -2.5706 C.ar      1 <0>        -0.0631
     14 C12        -0.5945   -7.5714   -3.6600 C.ar      1 <0>        -0.1419
     15 C13        -0.9325   -6.2216   -3.5865 C.ar      1 <0>        -0.0056
     16 C14         0.0181   -8.1159   -4.8907 C.2       1 <0>         0.5649
     17 O2          0.2319   -7.3848   -5.8379 O.2       1 <0>        -0.5247
     18 N2          0.3394   -9.4228   -4.9621 N.am      1 <0>        -0.7186
     19 C15         0.9463   -9.9623   -6.1814 C.3       1 <0>         0.1182
     20 H1          1.6025   -9.2124   -6.6232 H         1 <0>         0.1202
     21 C16        -0.1538  -10.3289   -7.1796 C.3       1 <0>         0.0470
     22 O3         -0.9441  -11.3940   -6.6475 O.3       1 <0>        -0.2768
     23 C17        -1.9720  -11.8424   -7.4150 C.ar      1 <0>         0.1972
     24 C18        -2.2110  -11.2728   -8.6569 C.ar      1 <0>        -0.2617
     25 C19        -3.2577  -11.7307   -9.4376 C.ar      1 <0>         0.1732
     26 C20        -4.0666  -12.7568   -8.9794 C.ar      1 <0>        -0.2334
     27 C21        -3.8292  -13.3263   -7.7399 C.ar      1 <0>         0.1719
     28 C22        -2.7796  -12.8741   -6.9596 C.ar      1 <0>        -0.1970
     29 F1         -4.6194  -14.3274   -7.2943 F         1 <0>        -0.1241
     30 F2         -3.4907  -11.1761  -10.6473 F         1 <0>        -0.1268
     31 C23         1.7592  -11.2118   -5.8367 C.3       1 <0>         0.1086
     32 H2          2.2822  -11.5620   -6.7266 H         1 <0>         0.1123
     33 C24         2.7779  -10.8729   -4.7467 C.3       1 <0>        -0.1751
     34 C25         3.6776  -12.0845   -4.4949 C.3       1 <0>         0.0790
     35 H3          4.4360  -11.8265   -3.7557 H         1 <0>         0.0862
     36 C26         4.3483  -12.4884   -5.7826 C.2       1 <0>         0.5163
     37 O4          4.0974  -13.5630   -6.2858 O.2       1 <0>        -0.5016
     38 N3          5.2268  -11.6555   -6.3750 N.am      1 <0>        -0.7045
     39 C27         5.8788  -12.0482   -7.6268 C.3       1 <0>         0.0784
     40 C28         7.3785  -11.7752   -7.7581 C.3       1 <0>        -0.1921
     41 C29         6.3752  -10.9302   -8.5457 C.3       1 <0>        -0.1875
     42 O5          2.8879  -13.1712   -4.0079 O.3       1 <0>        -0.3348
     43 C30         2.7047  -13.1672   -2.5906 C.3       1 <0>         0.0264
     44 O6          0.8813  -12.2365   -5.3662 O.3       1 <0>        -0.5072
     45 H4         -0.5587    0.8272   -1.7922 H         1 <0>         0.0583
     46 H5         -2.2496    0.3366   -2.0538 H         1 <0>         0.0576
     47 H6         -1.5866    0.4002   -0.4032 H         1 <0>         0.0553
     48 H7         -0.6911   -1.5104   -2.6087 H         1 <0>         0.0673
     49 H8         -0.0281   -1.4469   -0.9581 H         1 <0>         0.0621
     50 H9         -2.2691   -1.9753   -0.0376 H         1 <0>         0.0798
     51 H10        -2.9321   -2.0389   -1.6883 H         1 <0>         0.0856
     52 H11        -0.4947   -5.1892   -0.4185 H         1 <0>         0.0921
     53 H12        -0.1488   -3.5977    0.2998 H         1 <0>         0.0789
     54 H13        -2.3044   -3.5955    1.4501 H         1 <0>         0.0718
     55 H14        -2.7790   -5.1059    0.6366 H         1 <0>         0.0695
     56 H15        -0.8960   -6.2886    1.7339 H         1 <0>         0.0576
     57 H16        -0.4214   -4.7782    2.5473 H         1 <0>         0.0593
     58 H17        -1.9764   -5.5501    2.9403 H         1 <0>         0.0617
     59 H18        -2.1898   -6.1748   -0.4358 H         1 <0>         0.1453
     60 H19        -1.5997   -8.5554   -0.5804 H         1 <0>         0.1389
     61 H20        -0.5836   -9.4574   -2.6280 H         1 <0>         0.1296
     62 H21        -0.7486   -5.5699   -4.4278 H         1 <0>         0.1453
     63 H22         0.1688  -10.0062   -4.2062 H         1 <0>         0.3993
     64 H23        -0.7875   -9.4600   -7.3572 H         1 <0>         0.0748
     65 H24         0.2989  -10.6466   -8.1188 H         1 <0>         0.0781
     66 H25        -1.5806  -10.4720   -9.0143 H         1 <0>         0.1451
     67 H26        -4.8837  -13.1130   -9.5892 H         1 <0>         0.1498
     68 H27        -2.5921  -13.3213   -5.9946 H         1 <0>         0.1517
     69 H28         3.3873  -10.0285   -5.0688 H         1 <0>         0.0881
     70 H29         2.2533  -10.6126   -3.8274 H         1 <0>         0.0834
     71 H30         5.4275  -10.7961   -5.9725 H         1 <0>         0.4003
     72 H31         5.4880  -12.9503   -8.0975 H         1 <0>         0.1394
     73 H32         7.8800  -11.3034   -6.9132 H         1 <0>         0.0973
     74 H33         7.9747  -12.4979   -8.3153 H         1 <0>         0.1040
     75 H34         6.3113  -11.0969   -9.6210 H         1 <0>         0.1054
     76 H35         6.2167   -9.9025   -8.2189 H         1 <0>         0.0981
     77 H36         3.6770  -13.1409   -2.0987 H         1 <0>         0.0415
     78 H37         2.1273  -12.2892   -2.3014 H         1 <0>         0.0396
     79 H38         2.1701  -14.0686   -2.2908 H         1 <0>         0.0934
     80 H39         0.3819  -11.9935   -4.5745 H         1 <0>         0.3613
@<TRIPOS>BOND
     1    1    2 1
     2    1   45 1
     3    1   46 1
     4    1   47 1
     5    2    3 1
     6    2   48 1
     7    2   49 1
     8    3    4 1
     9    3   50 1
    10    3   51 1
    11    4    5 1
    12    4    8 am
    13    5    6 1
    14    5   52 1
    15    5   53 1
    16    6    7 1
    17    6   54 1
    18    6   55 1
    19    7   56 1
    20    7   57 1
    21    7   58 1
    22    8    9 2
    23    8   10 1
    24   10   15 ar
    25   10   11 ar
    26   11   12 ar
    27   11   59 1
    28   12   13 ar
    29   12   60 1
    30   13   14 ar
    31   13   61 1
    32   14   15 ar
    33   14   16 1
    34   15   62 1
    35   16   17 2
    36   16   18 am
    37   18   19 1
    38   18   63 1
    39   19   20 1
    40   19   21 1
    41   19   31 1
    42   21   22 1
    43   21   64 1
    44   21   65 1
    45   22   23 1
    46   23   28 ar
    47   23   24 ar
    48   24   25 ar
    49   24   66 1
    50   25   26 ar
    51   25   30 1
    52   26   27 ar
    53   26   67 1
    54   27   28 ar
    55   27   29 1
    56   28   68 1
    57   31   32 1
    58   31   33 1
    59   31   44 1
    60   33   34 1
    61   33   69 1
    62   33   70 1
    63   34   35 1
    64   34   36 1
    65   34   42 1
    66   36   37 2
    67   36   38 am
    68   38   39 1
    69   38   71 1
    70   39   41 1
    71   39   40 1
    72   39   72 1
    73   40   41 1
    74   40   73 1
    75   40   74 1
    76   41   75 1
    77   41   76 1
    78   42   43 1
    79   43   77 1
    80   43   78 1
    81   43   79 1
    82   44   80 1
@<TRIPOS>MOLECULE
CHEMBL375217
   72    74     0     0     0
SMALL
USER_CHARGES

@<TRIPOS>ATOM
      1 C1         -0.0187    1.5258    0.0104 C.3       1 <0>        -0.1611
      2 C2          0.0021   -0.0041    0.0020 C.3       1 <0>         0.1843
      3 H1          0.5123   -0.3556   -0.8948 H         1 <0>         0.1060
      4 C3         -1.4117   -0.5257    0.0127 C.ar      1 <0>        -0.1031
      5 C4         -2.1224   -0.5707    1.1977 C.ar      1 <0>        -0.0933
      6 C5         -3.4191   -1.0484    1.2086 C.ar      1 <0>        -0.1547
      7 C6         -4.0065   -1.4821    0.0322 C.ar      1 <0>         0.1051
      8 C7         -3.2938   -1.4366   -1.1540 C.ar      1 <0>        -0.1424
      9 C8         -1.9990   -0.9535   -1.1634 C.ar      1 <0>        -0.0706
     10 F1         -5.2740   -1.9497    0.0418 F         1 <0>        -0.1347
     11 N1          0.7106   -0.4894    1.1889 N.am      1 <0>        -0.7207
     12 C9          2.0538   -0.5998    1.1737 C.2       1 <0>         0.5620
     13 O1          2.6772   -0.2967    0.1752 O.2       1 <0>        -0.5127
     14 C10         2.7690   -1.0897    2.3717 C.ar      1 <0>        -0.1097
     15 C11         2.0545   -1.4427    3.5147 C.ar      1 <0>        -0.0614
     16 C12         2.7323   -1.9038    4.6417 C.ar      1 <0>        -0.0970
     17 C13         4.1245   -2.0107    4.6220 C.ar      1 <0>        -0.0728
     18 C14         4.8325   -1.6584    3.4824 C.ar      1 <0>         0.1727
     19 C15         4.1599   -1.2043    2.3567 C.ar      1 <0>        -0.0460
     20 N2          6.2258   -1.7660    3.4660 N.pl3     1 <0>        -0.9428
     21 C16         6.9323   -1.9375    2.1941 C.3       1 <0>         0.0741
     22 S1          7.0781   -1.6997    4.8843 S.o2      1 <0>         2.5935
     23 O2          8.3647   -1.2249    4.5122 O.2       1 <0>        -0.9290
     24 O3          6.2559   -0.9483    5.7666 O.2       1 <0>        -0.9387
     25 C17         7.1855   -3.4216    5.4446 C.3       1 <0>        -0.6709
     26 C18         1.9787   -2.2788    5.8561 C.2       1 <0>         0.5243
     27 O4          2.5701   -2.6807    6.8380 O.2       1 <0>        -0.4687
     28 O5          0.6358   -2.1750    5.8743 O.3       1 <0>        -0.3706
     29 C19        -0.0280   -2.5548    7.0815 C.3       1 <0>         0.0489
     30 C20        -1.5375   -2.3702    6.9133 C.3       1 <0>         0.0739
     31 C21        -2.2376   -2.6571    8.2431 C.3       1 <0>        -0.0882
     32 C22        -3.7244   -2.4753    8.0775 C.ar      1 <0>        -0.1289
     33 C23        -4.2986   -1.2378    8.3010 C.ar      1 <0>        -0.1427
     34 C24        -5.6624   -1.0711    8.1491 C.ar      1 <0>        -0.1073
     35 C25        -6.4520   -2.1416    7.7732 C.ar      1 <0>        -0.1007
     36 C26        -5.8777   -3.3789    7.5487 C.ar      1 <0>        -0.1071
     37 C27        -4.5133   -3.5446    7.6965 C.ar      1 <0>        -0.1001
     38 C28        -2.0538   -3.3373    5.8461 C.3       1 <0>         0.0635
     39 O6         -1.7801   -4.6809    6.2484 O.3       1 <0>        -0.5505
     40 N3         -1.8188   -0.9890    6.4998 N.4       1 <0>        -0.6311
     41 H2          1.0039    1.9031    0.0027 H         1 <0>         0.0707
     42 H3         -0.5459    1.8868   -0.8726 H         1 <0>         0.0744
     43 H4         -0.5289    1.8773    0.9072 H         1 <0>         0.0589
     44 H5         -1.6639   -0.2327    2.1152 H         1 <0>         0.1237
     45 H6         -3.9740   -1.0837    2.1345 H         1 <0>         0.1332
     46 H7         -3.7509   -1.7749   -2.0722 H         1 <0>         0.1432
     47 H8         -1.4444   -0.9138   -2.0893 H         1 <0>         0.1408
     48 H9          0.2131   -0.7312    1.9857 H         1 <0>         0.3938
     49 H10         0.9779   -1.3587    3.5273 H         1 <0>         0.1373
     50 H11         4.6506   -2.3677    5.4951 H         1 <0>         0.1496
     51 H12         4.7137   -0.9354    1.4694 H         1 <0>         0.1584
     52 H13         7.1852   -0.9597    1.7843 H         1 <0>         0.0794
     53 H14         7.8454   -2.5092    2.3599 H         1 <0>         0.0906
     54 H15         6.2919   -2.4712    1.4919 H         1 <0>         0.0873
     55 H16         7.7015   -4.0173    4.6915 H         1 <0>         0.1364
     56 H17         7.7381   -3.4646    6.3831 H         1 <0>         0.1408
     57 H18         6.1813   -3.8178    5.5958 H         1 <0>         0.1302
     58 H19         0.1880   -3.6003    7.3014 H         1 <0>         0.1282
     59 H20         0.3252   -1.9304    7.9022 H         1 <0>         0.1010
     60 H21        -2.0289   -3.6819    8.5500 H         1 <0>         0.1328
     61 H22        -1.8698   -1.9681    9.0035 H         1 <0>         0.1038
     62 H23        -3.6817   -0.4014    8.5947 H         1 <0>         0.1235
     63 H24        -6.1111   -0.1044    8.3244 H         1 <0>         0.1328
     64 H25        -7.5176   -2.0115    7.6551 H         1 <0>         0.1328
     65 H26        -6.4946   -4.2154    7.2554 H         1 <0>         0.1329
     66 H27        -4.0641   -4.5103    7.5176 H         1 <0>         0.1346
     67 H28        -3.1291   -3.2058    5.7263 H         1 <0>         0.0781
     68 H29        -1.5549   -3.1329    4.8987 H         1 <0>         0.0775
     69 H30        -2.0807   -5.3494    5.6176 H         1 <0>         0.4078
     70 H31        -1.3571   -0.7998    5.6228 H         1 <0>         0.4382
     71 H32        -2.8143   -0.8672    6.3889 H         1 <0>         0.4360
     72 H33        -1.4783   -0.3512    7.2036 H         1 <0>         0.4410
@<TRIPOS>BOND
     1    1    2 1
     2    1   41 1
     3    1   42 1
     4    1   43 1
     5    2    3 1
     6    2    4 1
     7    2   11 1
     8    4    9 ar
     9    4    5 ar
    10    5    6 ar
    11    5   44 1
    12    6    7 ar
    13    6   45 1
    14    7    8 ar
    15    7   10 1
    16    8    9 ar
    17    8   46 1
    18    9   47 1
    19   11   12 am
    20   11   48 1
    21   12   13 2
    22   12   14 1
    23   14   19 ar
    24   14   15 ar
    25   15   16 ar
    26   15   49 1
    27   16   17 ar
    28   16   26 1
    29   17   18 ar
    30   17   50 1
    31   18   19 ar
    32   18   20 1
    33   19   51 1
    34   20   21 1
    35   20   22 1
    36   21   52 1
    37   21   53 1
    38   21   54 1
    39   22   23 2
    40   22   24 2
    41   22   25 1
    42   25   55 1
    43   25   56 1
    44   25   57 1
    45   26   27 2
    46   26   28 1
    47   28   29 1
    48   29   30 1
    49   29   58 1
    50   29   59 1
    51   30   31 1
    52   30   38 1
    53   30   40 1
    54   31   32 1
    55   31   60 1
    56   31   61 1
    57   32   37 ar
    58   32   33 ar
    59   33   34 ar
    60   33   62 1
    61   34   35 ar
    62   34   63 1
    63   35   36 ar
    64   35   64 1
    65   36   37 ar
    66   36   65 1
    67   37   66 1
    68   38   39 1
    69   38   67 1
    70   38   68 1
    71   39   69 1
    72   40   70 1
    73   40   71 1
    74   40   72 1
@<TRIPOS>MOLECULE
CHEMBL375217__1
   71    73     0     0     0
SMALL
USER_CHARGES

@<TRIPOS>ATOM
      1 C1         -0.0187    1.5258    0.0104 C.3       1 <0>        -0.1610
      2 C2          0.0021   -0.0041    0.0020 C.3       1 <0>         0.1865
      3 H1         -1.0205   -0.3814    0.0098 H         1 <0>         0.1029
      4 C3          0.7309   -0.5033    1.2229 C.ar      1 <0>        -0.1065
      5 C4          2.1132   -0.5135    1.2461 C.ar      1 <0>        -0.0850
      6 C5          2.7827   -0.9706    2.3653 C.ar      1 <0>        -0.1463
      7 C6          2.0685   -1.4185    3.4637 C.ar      1 <0>         0.1021
      8 C7          0.6842   -1.4079    3.4393 C.ar      1 <0>        -0.1483
      9 C8          0.0169   -0.9453    2.3210 C.ar      1 <0>        -0.0759
     10 F1          2.7219   -1.8661    4.5582 F         1 <0>        -0.1371
     11 N1          0.6878   -0.4765   -1.2033 N.am      1 <0>        -0.7197
     12 C9          0.0062   -0.6081   -2.3585 C.2       1 <0>         0.5658
     13 O1         -1.1774   -0.3349   -2.4004 O.2       1 <0>        -0.5240
     14 C10         0.6984   -1.0850   -3.5752 C.ar      1 <0>        -0.1147
     15 C11         2.0539   -1.4039   -3.5266 C.ar      1 <0>        -0.0543
     16 C12         2.7025   -1.8530   -4.6754 C.ar      1 <0>        -0.0893
     17 C13         1.9925   -1.9819   -5.8710 C.ar      1 <0>        -0.0741
     18 C14         0.6431   -1.6635   -5.9156 C.ar      1 <0>         0.1622
     19 C15        -0.0068   -1.2216   -4.7718 C.ar      1 <0>        -0.0514
     20 N2         -0.0646   -1.7931   -7.1136 N.pl3     1 <0>        -0.9423
     21 C16        -1.5146   -2.0010   -7.0890 C.3       1 <0>         0.0773
     22 S1          0.7357   -1.7118   -8.5611 S.o2      1 <0>         2.5949
     23 O2         -0.2413   -1.2646   -9.4910 O.2       1 <0>        -0.9360
     24 O3          1.8917   -0.9301   -8.2928 O.2       1 <0>        -0.9354
     25 C17         1.2104   -3.4236   -8.9282 C.3       1 <0>        -0.6719
     26 C18         4.1400   -2.1918   -4.6286 C.2       1 <0>         0.5119
     27 O4          4.7047   -2.5832   -5.6304 O.2       1 <0>        -0.4888
     28 O5          4.8243   -2.0668   -3.4751 O.3       1 <0>        -0.3472
     29 C19         6.2107   -2.4119   -3.5025 C.3       1 <0>         0.0366
     30 C20         6.8148   -2.2073   -2.1117 C.3       1 <0>         0.1379
     31 C21         8.3232   -2.4566   -2.1692 C.3       1 <0>        -0.0663
     32 C22         8.9182   -2.2550   -0.7994 C.ar      1 <0>        -0.0648
     33 C23         9.3676   -1.0045   -0.4182 C.ar      1 <0>        -0.0916
     34 C24         9.9134   -0.8196    0.8383 C.ar      1 <0>        -0.1224
     35 C25        10.0094   -1.8851    1.7138 C.ar      1 <0>        -0.1233
     36 C26         9.5592   -3.1353    1.3329 C.ar      1 <0>        -0.1246
     37 C27         9.0094   -3.3193    0.0780 C.ar      1 <0>        -0.1161
     38 C28         6.1730   -3.1874   -1.1277 C.3       1 <0>         0.0852
     39 O6          6.4183   -4.5268   -1.5611 O.3       1 <0>        -0.5705
     40 N3          6.5626   -0.8304   -1.6661 N.3       1 <0>        -0.8250
     41 H2          1.0039    1.9031    0.0027 H         1 <0>         0.0616
     42 H3         -0.5459    1.8868   -0.8726 H         1 <0>         0.0685
     43 H4         -0.5289    1.8773    0.9072 H         1 <0>         0.0716
     44 H5          2.6700   -0.1644    0.3891 H         1 <0>         0.1307
     45 H6          3.8625   -0.9788    2.3831 H         1 <0>         0.1393
     46 H7          0.1261   -1.7573    4.2954 H         1 <0>         0.1390
     47 H8         -1.0629   -0.9327    2.3035 H         1 <0>         0.1368
     48 H9          1.6324   -0.6946   -1.1699 H         1 <0>         0.4000
     49 H10         2.6007   -1.3030   -2.6008 H         1 <0>         0.1428
     50 H11         2.4945   -2.3295   -6.7618 H         1 <0>         0.1468
     51 H12        -1.0586   -0.9791   -4.8088 H         1 <0>         0.1544
     52 H13        -2.0204   -1.0356   -7.1066 H         1 <0>         0.0763
     53 H14        -1.8130   -2.5834   -7.9607 H         1 <0>         0.0866
     54 H15        -1.7892   -2.5386   -6.1815 H         1 <0>         0.0860
     55 H16         0.3155   -4.0422   -8.9965 H         1 <0>         0.1339
     56 H17         1.7479   -3.4564   -9.8759 H         1 <0>         0.1385
     57 H18         1.8531   -3.8010   -8.1328 H         1 <0>         0.1322
     58 H19         6.3194   -3.4561   -3.7957 H         1 <0>         0.0861
     59 H20         6.7291   -1.7769   -4.2208 H         1 <0>         0.0710
     60 H21         8.5103   -3.4782   -2.4998 H         1 <0>         0.0885
     61 H22         8.7804   -1.7583   -2.8703 H         1 <0>         0.0736
     62 H23         9.2927   -0.1721   -1.1022 H         1 <0>         0.1181
     63 H24        10.2652    0.1572    1.1358 H         1 <0>         0.1184
     64 H25        10.4365   -1.7407    2.6952 H         1 <0>         0.1175
     65 H26         9.6345   -3.9678    2.0168 H         1 <0>         0.1178
     66 H27         8.6543   -4.2953   -0.2182 H         1 <0>         0.1216
     67 H28         6.6034   -3.0416   -0.1369 H         1 <0>         0.0652
     68 H29         5.0983   -3.0098   -1.0867 H         1 <0>         0.0485
     69 H30         6.0391   -5.2029   -0.9830 H         1 <0>         0.3841
     70 H31         6.9768   -0.1636   -2.3001 H         1 <0>         0.3485
     71 H32         5.5739   -0.6606   -1.5581 H         1 <0>         0.3467
@<TRIPOS>BOND
     1    1    2 1
     2    1   41 1
     3    1   42 1
     4    1   43 1
     5    2    3 1
     6    2    4 1
     7    2   11 1
     8    4    9 ar
     9    4    5 ar
    10    5    6 ar
    11    5   44 1
    12    6    7 ar
    13    6   45 1
    14    7    8 ar
    15    7   10 1
    16    8    9 ar
    17    8   46 1
    18    9   47 1
    19   11   12 am
    20   11   48 1
    21   12   13 2
    22   12   14 1
    23   14   19 ar
    24   14   15 ar
    25   15   16 ar
    26   15   49 1
    27   16   17 ar
    28   16   26 1
    29   17   18 ar
    30   17   50 1
    31   18   19 ar
    32   18   20 1
    33   19   51 1
    34   20   21 1
    35   20   22 1
    36   21   52 1
    37   21   53 1
    38   21   54 1
    39   22   23 2
    40   22   24 2
    41   22   25 1
    42   25   55 1
    43   25   56 1
    44   25   57 1
    45   26   27 2
    46   26   28 1
    47   28   29 1
    48   29   30 1
    49   29   58 1
    50   29   59 1
    51   30   31 1
    52   30   38 1
    53   30   40 1
    54   31   32 1
    55   31   60 1
    56   31   61 1
    57   32   37 ar
    58   32   33 ar
    59   33   34 ar
    60   33   62 1
    61   34   35 ar
    62   34   63 1
    63   35   36 ar
    64   35   64 1
    65   36   37 ar
    66   36   65 1
    67   37   66 1
    68   38   39 1
    69   38   67 1
    70   38   68 1
    71   39   69 1
    72   40   70 1
    73   40   71 1
@<TRIPOS>MOLECULE
CHEMBL375217__2
   72    74     0     0     0
SMALL
USER_CHARGES

@<TRIPOS>ATOM
      1 C1         -0.0187    1.5258    0.0104 C.3       1 <0>        -0.1622
      2 C2          0.0021   -0.0041    0.0020 C.3       1 <0>         0.1844
      3 H1          0.5123   -0.3556   -0.8948 H         1 <0>         0.1060
      4 C3         -1.4117   -0.5257    0.0127 C.ar      1 <0>        -0.1023
      5 C4         -2.1224   -0.5707    1.1977 C.ar      1 <0>        -0.0938
      6 C5         -3.4191   -1.0484    1.2086 C.ar      1 <0>        -0.1565
      7 C6         -4.0065   -1.4821    0.0322 C.ar      1 <0>         0.1042
      8 C7         -3.2938   -1.4366   -1.1540 C.ar      1 <0>        -0.1429
      9 C8         -1.9990   -0.9535   -1.1634 C.ar      1 <0>        -0.0703
     10 F1         -5.2740   -1.9497    0.0418 F         1 <0>        -0.1351
     11 N1          0.7106   -0.4894    1.1889 N.am      1 <0>        -0.7207
     12 C9          2.0538   -0.5998    1.1737 C.2       1 <0>         0.5621
     13 O1          2.6772   -0.2967    0.1752 O.2       1 <0>        -0.5129
     14 C10         2.7690   -1.0897    2.3717 C.ar      1 <0>        -0.1099
     15 C11         2.0545   -1.4427    3.5147 C.ar      1 <0>        -0.0611
     16 C12         2.7323   -1.9038    4.6417 C.ar      1 <0>        -0.0971
     17 C13         4.1245   -2.0107    4.6220 C.ar      1 <0>        -0.0730
     18 C14         4.8325   -1.6584    3.4824 C.ar      1 <0>         0.1725
     19 C15         4.1599   -1.2043    2.3567 C.ar      1 <0>        -0.0461
     20 N2          6.2258   -1.7660    3.4660 N.pl3     1 <0>        -0.9428
     21 C16         6.9323   -1.9375    2.1941 C.3       1 <0>         0.0742
     22 S1          7.0781   -1.6997    4.8843 S.o2      1 <0>         2.5927
     23 O2          8.3647   -1.2249    4.5122 O.2       1 <0>        -0.9288
     24 O3          6.2559   -0.9483    5.7666 O.2       1 <0>        -0.9370
     25 C17         7.1855   -3.4216    5.4446 C.3       1 <0>        -0.6708
     26 C18         1.9787   -2.2788    5.8561 C.2       1 <0>         0.5239
     27 O4          2.5701   -2.6807    6.8380 O.2       1 <0>        -0.4698
     28 O5          0.6358   -2.1750    5.8743 O.3       1 <0>        -0.3679
     29 C19        -0.0280   -2.5548    7.0815 C.3       1 <0>         0.0498
     30 C20        -1.5375   -2.3702    6.9133 C.3       1 <0>         0.0733
     31 C21        -2.2481   -2.7768    8.2058 C.3       1 <0>        -0.0885
     32 C22        -3.7397   -2.7124    8.0006 C.ar      1 <0>        -0.1315
     33 C23        -4.4231   -1.5392    8.2603 C.ar      1 <0>        -0.1007
     34 C24        -5.7912   -1.4801    8.0721 C.ar      1 <0>        -0.1067
     35 C25        -6.4760   -2.5940    7.6238 C.ar      1 <0>        -0.1003
     36 C26        -5.7925   -3.7670    7.3632 C.ar      1 <0>        -0.1069
     37 C27        -4.4237   -3.8248    7.5473 C.ar      1 <0>        -0.1429
     38 C28        -1.8406   -0.9026    6.6046 C.3       1 <0>         0.0641
     39 O6         -1.3775   -0.0841    7.6806 O.3       1 <0>        -0.5501
     40 N3         -2.0135   -3.2116    5.8073 N.4       1 <0>        -0.6315
     41 H2          1.0039    1.9031    0.0027 H         1 <0>         0.0710
     42 H3         -0.5459    1.8868   -0.8726 H         1 <0>         0.0743
     43 H4         -0.5289    1.8773    0.9072 H         1 <0>         0.0599
     44 H5         -1.6639   -0.2327    2.1152 H         1 <0>         0.1263
     45 H6         -3.9740   -1.0837    2.1345 H         1 <0>         0.1333
     46 H7         -3.7509   -1.7749   -2.0722 H         1 <0>         0.1430
     47 H8         -1.4444   -0.9138   -2.0893 H         1 <0>         0.1408
     48 H9          0.2131   -0.7312    1.9857 H         1 <0>         0.3941
     49 H10         0.9779   -1.3587    3.5273 H         1 <0>         0.1377
     50 H11         4.6506   -2.3677    5.4951 H         1 <0>         0.1495
     51 H12         4.7137   -0.9354    1.4694 H         1 <0>         0.1583
     52 H13         7.1852   -0.9597    1.7843 H         1 <0>         0.0794
     53 H14         7.8454   -2.5092    2.3599 H         1 <0>         0.0904
     54 H15         6.2919   -2.4712    1.4919 H         1 <0>         0.0870
     55 H16         7.7015   -4.0173    4.6915 H         1 <0>         0.1360
     56 H17         7.7381   -3.4646    6.3831 H         1 <0>         0.1407
     57 H18         6.1813   -3.8178    5.5958 H         1 <0>         0.1297
     58 H19         0.1880   -3.6003    7.3014 H         1 <0>         0.0993
     59 H20         0.3252   -1.9304    7.9022 H         1 <0>         0.1285
     60 H21        -1.9618   -3.7939    8.4734 H         1 <0>         0.1041
     61 H22        -1.9619   -2.0960    9.0075 H         1 <0>         0.1335
     62 H23        -3.8881   -0.6688    8.6106 H         1 <0>         0.1339
     63 H24        -6.3253   -0.5636    8.2757 H         1 <0>         0.1334
     64 H25        -7.5451   -2.5481    7.4774 H         1 <0>         0.1332
     65 H26        -6.3276   -4.6374    7.0132 H         1 <0>         0.1332
     66 H27        -3.8891   -4.7401    7.3402 H         1 <0>         0.1244
     67 H28        -1.3343   -0.6130    5.6838 H         1 <0>         0.0777
     68 H29        -2.9159   -0.7711    6.4848 H         1 <0>         0.0772
     69 H30        -1.5369    0.8610    7.5525 H         1 <0>         0.4081
     70 H31        -1.8136   -4.1795    6.0108 H         1 <0>         0.4401
     71 H32        -3.0089   -3.0899    5.6964 H         1 <0>         0.4364
     72 H33        -1.5448   -2.9435    4.9549 H         1 <0>         0.4382
@<TRIPOS>BOND
     1    1    2 1
     2    1   41 1
     3    1   42 1
     4    1   43 1
     5    2    3 1
     6    2    4 1
     7    2   11 1
     8    4    9 ar
     9    4    5 ar
    10    5    6 ar
    11    5   44 1
    12    6    7 ar
    13    6   45 1
    14    7    8 ar
    15    7   10 1
    16    8    9 ar
    17    8   46 1
    18    9   47 1
    19   11   12 am
    20   11   48 1
    21   12   13 2
    22   12   14 1
    23   14   19 ar
    24   14   15 ar
    25   15   16 ar
    26   15   49 1
    27   16   17 ar
    28   16   26 1
    29   17   18 ar
    30   17   50 1
    31   18   19 ar
    32   18   20 1
    33   19   51 1
    34   20   21 1
    35   20   22 1
    36   21   52 1
    37   21   53 1
    38   21   54 1
    39   22   23 2
    40   22   24 2
    41   22   25 1
    42   25   55 1
    43   25   56 1
    44   25   57 1
    45   26   27 2
    46   26   28 1
    47   28   29 1
    48   29   30 1
    49   29   58 1
    50   29   59 1
    51   30   31 1
    52   30   38 1
    53   30   40 1
    54   31   32 1
    55   31   60 1
    56   31   61 1
    57   32   37 ar
    58   32   33 ar
    59   33   34 ar
    60   33   62 1
    61   34   35 ar
    62   34   63 1
    63   35   36 ar
    64   35   64 1
    65   36   37 ar
    66   36   65 1
    67   37   66 1
    68   38   39 1
    69   38   67 1
    70   38   68 1
    71   39   69 1
    72   40   70 1
    73   40   71 1
    74   40   72 1
@<TRIPOS>MOLECULE
CHEMBL375217__3
   71    73     0     0     0
SMALL
USER_CHARGES

@<TRIPOS>ATOM
      1 C1         -0.0187    1.5258    0.0104 C.3       1 <0>        -0.1608
      2 C2          0.0021   -0.0041    0.0020 C.3       1 <0>         0.1864
      3 H1         -1.0205   -0.3814    0.0098 H         1 <0>         0.1026
      4 C3          0.7309   -0.5033    1.2229 C.ar      1 <0>        -0.1060
      5 C4          2.1132   -0.5135    1.2461 C.ar      1 <0>        -0.0826
      6 C5          2.7827   -0.9706    2.3653 C.ar      1 <0>        -0.1450
      7 C6          2.0685   -1.4185    3.4637 C.ar      1 <0>         0.1015
      8 C7          0.6842   -1.4079    3.4393 C.ar      1 <0>        -0.1489
      9 C8          0.0169   -0.9453    2.3210 C.ar      1 <0>        -0.0760
     10 F1          2.7219   -1.8661    4.5582 F         1 <0>        -0.1380
     11 N1          0.6878   -0.4765   -1.2033 N.am      1 <0>        -0.7197
     12 C9          0.0062   -0.6081   -2.3585 C.2       1 <0>         0.5665
     13 O1         -1.1774   -0.3349   -2.4004 O.2       1 <0>        -0.5262
     14 C10         0.6984   -1.0850   -3.5752 C.ar      1 <0>        -0.1167
     15 C11         2.0539   -1.4039   -3.5266 C.ar      1 <0>        -0.0509
     16 C12         2.7025   -1.8530   -4.6754 C.ar      1 <0>        -0.0879
     17 C13         1.9925   -1.9819   -5.8710 C.ar      1 <0>        -0.0744
     18 C14         0.6431   -1.6635   -5.9156 C.ar      1 <0>         0.1597
     19 C15        -0.0068   -1.2216   -4.7718 C.ar      1 <0>        -0.0523
     20 N2         -0.0646   -1.7931   -7.1136 N.pl3     1 <0>        -0.9422
     21 C16        -1.5146   -2.0010   -7.0890 C.3       1 <0>         0.0778
     22 S1          0.7357   -1.7118   -8.5611 S.o2      1 <0>         2.5951
     23 O2         -0.2413   -1.2646   -9.4910 O.2       1 <0>        -0.9372
     24 O3          1.8917   -0.9301   -8.2928 O.2       1 <0>        -0.9347
     25 C17         1.2104   -3.4236   -8.9282 C.3       1 <0>        -0.6721
     26 C18         4.1400   -2.1918   -4.6286 C.2       1 <0>         0.5089
     27 O4          4.7047   -2.5832   -5.6304 O.2       1 <0>        -0.4961
     28 O5          4.8243   -2.0668   -3.4751 O.3       1 <0>        -0.3261
     29 C19         6.2107   -2.4119   -3.5025 C.3       1 <0>         0.0854
     30 C20         6.8148   -2.2073   -2.1117 C.3       1 <0>         0.1341
     31 C21         8.2992   -2.5768   -2.1411 C.3       1 <0>        -0.1096
     32 C22         8.8653   -2.4933   -0.7469 C.ar      1 <0>        -0.0842
     33 C23         9.4022   -1.3046   -0.2890 C.ar      1 <0>        -0.1106
     34 C24         9.9214   -1.2280    0.9898 C.ar      1 <0>        -0.1175
     35 C25         9.9034   -2.3399    1.8109 C.ar      1 <0>        -0.1199
     36 C26         9.3657   -3.5284    1.3533 C.ar      1 <0>        -0.1153
     37 C27         8.8425   -3.6038    0.0760 C.ar      1 <0>        -0.1226
     38 C28         6.6621   -0.7416   -1.7000 C.3       1 <0>         0.0860
     39 O6          7.3418    0.0909   -2.6418 O.3       1 <0>        -0.5702
     40 N3          6.1161   -3.0632   -1.1436 N.3       1 <0>        -0.8273
     41 H2          1.0039    1.9031    0.0027 H         1 <0>         0.0609
     42 H3         -0.5459    1.8868   -0.8726 H         1 <0>         0.0685
     43 H4         -0.5289    1.8773    0.9072 H         1 <0>         0.0711
     44 H5          2.6700   -0.1644    0.3891 H         1 <0>         0.1305
     45 H6          3.8625   -0.9788    2.3831 H         1 <0>         0.1378
     46 H7          0.1261   -1.7573    4.2954 H         1 <0>         0.1384
     47 H8         -1.0629   -0.9327    2.3035 H         1 <0>         0.1365
     48 H9          1.6324   -0.6946   -1.1699 H         1 <0>         0.4016
     49 H10         2.6007   -1.3030   -2.6008 H         1 <0>         0.1459
     50 H11         2.4945   -2.3295   -6.7618 H         1 <0>         0.1462
     51 H12        -1.0586   -0.9791   -4.8088 H         1 <0>         0.1533
     52 H13        -2.0204   -1.0356   -7.1066 H         1 <0>         0.0757
     53 H14        -1.8130   -2.5834   -7.9607 H         1 <0>         0.0859
     54 H15        -1.7892   -2.5386   -6.1815 H         1 <0>         0.0859
     55 H16         0.3155   -4.0422   -8.9965 H         1 <0>         0.1334
     56 H17         1.7479   -3.4564   -9.8759 H         1 <0>         0.1380
     57 H18         1.8531   -3.8010   -8.1328 H         1 <0>         0.1324
     58 H19         6.3194   -3.4561   -3.7957 H         1 <0>         0.0679
     59 H20         6.7291   -1.7769   -4.2208 H         1 <0>         0.0850
     60 H21         8.4133   -3.5927   -2.5193 H         1 <0>         0.0755
     61 H22         8.8331   -1.8847   -2.7921 H         1 <0>         0.0924
     62 H23         9.4163   -0.4359   -0.9305 H         1 <0>         0.1251
     63 H24        10.3416   -0.2995    1.3473 H         1 <0>         0.1225
     64 H25        10.3097   -2.2802    2.8097 H         1 <0>         0.1222
     65 H26         9.3519   -4.3972    1.9947 H         1 <0>         0.1229
     66 H27         8.4190   -4.5313   -0.2802 H         1 <0>         0.1191
     67 H28         5.6046   -0.4783   -1.6792 H         1 <0>         0.0613
     68 H29         7.0925   -0.5958   -0.7093 H         1 <0>         0.0518
     69 H30         7.2868    1.0357   -2.4431 H         1 <0>         0.3845
     70 H31         6.2022   -4.0369   -1.3936 H         1 <0>         0.3473
     71 H32         6.4531   -2.8992   -0.2068 H         1 <0>         0.3475
@<TRIPOS>BOND
     1    1    2 1
     2    1   41 1
     3    1   42 1
     4    1   43 1
     5    2    3 1
     6    2    4 1
     7    2   11 1
     8    4    9 ar
     9    4    5 ar
    10    5    6 ar
    11    5   44 1
    12    6    7 ar
    13    6   45 1
    14    7    8 ar
    15    7   10 1
    16    8    9 ar
    17    8   46 1
    18    9   47 1
    19   11   12 am
    20   11   48 1
    21   12   13 2
    22   12   14 1
    23   14   19 ar
    24   14   15 ar
    25   15   16 ar
    26   15   49 1
    27   16   17 ar
    28   16   26 1
    29   17   18 ar
    30   17   50 1
    31   18   19 ar
    32   18   20 1
    33   19   51 1
    34   20   21 1
    35   20   22 1
    36   21   52 1
    37   21   53 1
    38   21   54 1
    39   22   23 2
    40   22   24 2
    41   22   25 1
    42   25   55 1
    43   25   56 1
    44   25   57 1
    45   26   27 2
    46   26   28 1
    47   28   29 1
    48   29   30 1
    49   29   58 1
    50   29   59 1
    51   30   31 1
    52   30   38 1
    53   30   40 1
    54   31   32 1
    55   31   60 1
    56   31   61 1
    57   32   37 ar
    58   32   33 ar
    59   33   34 ar
    60   33   62 1
    61   34   35 ar
    62   34   63 1
    63   35   36 ar
    64   35   64 1
    65   36   37 ar
    66   36   65 1
    67   37   66 1
    68   38   39 1
    69   38   67 1
    70   38   68 1
    71   39   69 1
    72   40   70 1
    73   40   71 1
@<TRIPOS>MOLECULE
CHEMBL584936
   76    78     0     0     0
SMALL
USER_CHARGES

@<TRIPOS>ATOM
      1 C1         -6.4867   -3.9582    4.5993 C.3       1 <0>        -0.1825
      2 C2         -5.1893   -3.3035    4.2002 C.2       1 <0>         0.5106
      3 O1         -4.1827   -3.9706    4.0881 O.2       1 <0>        -0.5313
      4 N1         -5.1476   -1.9765    3.9678 N.am      1 <0>        -0.7322
      5 C3         -3.8864   -1.3401    3.5798 C.3       1 <0>         0.1323
      6 H1         -4.0478   -0.2717    3.4362 H         1 <0>         0.1059
      7 C4         -2.8466   -1.5553    4.6813 C.3       1 <0>        -0.0989
      8 C5         -3.2855   -0.8401    5.9331 C.ar      1 <0>        -0.0285
      9 C6         -2.9091    0.4725    6.1465 C.ar      1 <0>        -0.1646
     10 C7         -3.3114    1.1304    7.2966 C.ar      1 <0>         0.1400
     11 C8         -4.0912    0.4732    8.2325 C.ar      1 <0>        -0.1922
     12 C9         -4.4679   -0.8413    8.0175 C.ar      1 <0>         0.1389
     13 C10        -4.0688   -1.4956    6.8643 C.ar      1 <0>        -0.1583
     14 F1         -5.2290   -1.4840    8.9302 F         1 <0>        -0.1259
     15 F2         -2.9426    2.4133    7.5053 F         1 <0>        -0.1254
     16 C11        -3.3827   -1.9598    2.2748 C.3       1 <0>         0.0685
     17 H2         -3.2214   -3.0282    2.4185 H         1 <0>         0.1451
     18 C12        -4.4226   -1.7446    1.1733 C.3       1 <0>        -0.0568
     19 N2         -3.9948   -2.4417   -0.0469 N.4       1 <0>        -0.5011
     20 C13        -4.9832   -2.2185   -1.1105 C.3       1 <0>         0.1176
     21 C14        -4.5455   -2.9582   -2.3767 C.3       1 <0>        -0.1465
     22 C15        -4.4108   -4.4529   -2.0694 C.3       1 <0>         0.1106
     23 N3         -5.6755   -4.9337   -1.4964 N.am      1 <0>        -0.6363
     24 C16        -6.2332   -4.2354   -0.3301 C.3       1 <0>         0.0940
     25 C17        -6.3474   -2.7432   -0.6570 C.3       1 <0>        -0.1530
     26 C18        -6.3120   -5.9947   -2.0307 C.2       1 <0>         0.7124
     27 O2         -5.8917   -6.5052   -3.0510 O.2       1 <0>        -0.5696
     28 N4         -7.4144   -6.4898   -1.4340 N.am      1 <0>        -0.8612
     29 C19        -5.0838   -0.7431   -1.4007 C.ar      1 <0>        -0.1230
     30 C20        -4.0034    0.0845   -1.1574 C.ar      1 <0>        -0.1402
     31 C21        -4.0957    1.4376   -1.4236 C.ar      1 <0>        -0.0946
     32 C22        -5.2684    1.9635   -1.9335 C.ar      1 <0>        -0.0976
     33 C23        -6.3481    1.1359   -2.1775 C.ar      1 <0>        -0.0443
     34 C24        -6.2543   -0.2183   -1.9153 C.ar      1 <0>        -0.0871
     35 C25        -7.6264    1.7091   -2.7328 C.3       1 <0>        -0.0349
     36 C26        -7.4642    3.2172   -2.9336 C.3       1 <0>        -0.1513
     37 C27        -7.9413    1.0468   -4.0756 C.3       1 <0>        -0.1426
     38 C28        -8.7716    1.4453   -1.7531 C.3       1 <0>        -0.1404
     39 O3         -2.1525   -1.3390    1.8964 O.3       1 <0>        -0.5415
     40 H3         -6.5789   -3.9496    5.6854 H         1 <0>         0.1028
     41 H4         -7.3203   -3.4107    4.1595 H         1 <0>         0.0835
     42 H5         -6.4992   -4.9877    4.2417 H         1 <0>         0.0995
     43 H6         -5.9527   -1.4429    4.0575 H         1 <0>         0.4118
     44 H7         -2.7502   -2.6214    4.8868 H         1 <0>         0.1083
     45 H8         -1.8847   -1.1597    4.3552 H         1 <0>         0.1017
     46 H9         -2.3007    0.9851    5.4161 H         1 <0>         0.1431
     47 H10        -4.4051    0.9855    9.1300 H         1 <0>         0.1524
     48 H11        -4.3663   -2.5198    6.6942 H         1 <0>         0.1357
     49 H12        -5.3845   -2.1402    1.4995 H         1 <0>         0.1408
     50 H13        -4.5190   -0.6785    0.9679 H         1 <0>         0.1438
     51 H14        -3.0979   -2.0852   -0.3410 H         1 <0>         0.4305
     52 H15        -5.2908   -2.8133   -3.1587 H         1 <0>         0.1199
     53 H16        -3.5847   -2.5678   -2.7124 H         1 <0>         0.1070
     54 H17        -4.1961   -4.9972   -2.9890 H         1 <0>         0.1267
     55 H18        -3.6033   -4.6075   -1.3538 H         1 <0>         0.0659
     56 H19        -7.2209   -4.6362   -0.1022 H         1 <0>         0.1080
     57 H20        -5.5743   -4.3723    0.5273 H         1 <0>         0.0683
     58 H21        -6.6692   -2.1997    0.2314 H         1 <0>         0.1048
     59 H22        -7.0758   -2.6003   -1.4552 H         1 <0>         0.1207
     60 H23        -7.7923   -6.0390   -0.6627 H         1 <0>         0.3954
     61 H24        -7.8299   -7.2969   -1.7759 H         1 <0>         0.4233
     62 H25        -3.0874   -0.3262   -0.7591 H         1 <0>         0.1167
     63 H26        -3.2520    2.0843   -1.2329 H         1 <0>         0.1363
     64 H27        -5.3408    3.0209   -2.1408 H         1 <0>         0.1399
     65 H28        -7.0968   -0.8656   -2.1095 H         1 <0>         0.1323
     66 H29        -6.6484    3.4051   -3.6316 H         1 <0>         0.0619
     67 H30        -8.3888    3.6318   -3.3353 H         1 <0>         0.0674
     68 H31        -7.2399    3.6891   -1.9770 H         1 <0>         0.0612
     69 H32        -8.0569   -0.0275   -3.9326 H         1 <0>         0.0554
     70 H33        -8.8659    1.4614   -4.4773 H         1 <0>         0.0676
     71 H34        -7.1255    1.2348   -4.7736 H         1 <0>         0.0598
     72 H35        -8.5473    1.9172   -0.7964 H         1 <0>         0.0582
     73 H36        -9.6962    1.8599   -2.1547 H         1 <0>         0.0675
     74 H37        -8.8872    0.3710   -1.6100 H         1 <0>         0.0547
     75 H38        -2.2215   -0.3854    1.7514 H         1 <0>         0.3869
     76 H39        -3.9189   -3.4305    0.1396 H         1 <0>         0.4263
@<TRIPOS>BOND
     1    1    2 1
     2    1   40 1
     3    1   41 1
     4    1   42 1
     5    2    3 2
     6    2    4 am
     7    4    5 1
     8    4   43 1
     9    5    6 1
    10    5    7 1
    11    5   16 1
    12    7    8 1
    13    7   44 1
    14    7   45 1
    15    8   13 ar
    16    8    9 ar
    17    9   10 ar
    18    9   46 1
    19   10   11 ar
    20   10   15 1
    21   11   12 ar
    22   11   47 1
    23   12   13 ar
    24   12   14 1
    25   13   48 1
    26   16   17 1
    27   16   18 1
    28   16   39 1
    29   18   19 1
    30   18   49 1
    31   18   50 1
    32   19   20 1
    33   19   51 1
    34   19   76 1
    35   20   25 1
    36   20   21 1
    37   20   29 1
    38   21   22 1
    39   21   52 1
    40   21   53 1
    41   22   23 1
    42   22   54 1
    43   22   55 1
    44   23   24 1
    45   23   26 am
    46   24   25 1
    47   24   56 1
    48   24   57 1
    49   25   58 1
    50   25   59 1
    51   26   27 2
    52   26   28 am
    53   28   60 1
    54   28   61 1
    55   29   34 ar
    56   29   30 ar
    57   30   31 ar
    58   30   62 1
    59   31   32 ar
    60   31   63 1
    61   32   33 ar
    62   32   64 1
    63   33   34 ar
    64   33   35 1
    65   34   65 1
    66   35   36 1
    67   35   37 1
    68   35   38 1
    69   36   66 1
    70   36   67 1
    71   36   68 1
    72   37   69 1
    73   37   70 1
    74   37   71 1
    75   38   72 1
    76   38   73 1
    77   38   74 1
    78   39   75 1
@<TRIPOS>MOLECULE
CHEMBL584547
   73    75     0     0     0
SMALL
USER_CHARGES

@<TRIPOS>ATOM
      1 C1         -2.8072    1.0523   -0.0904 C.3       1 <0>        -0.1849
      2 C2         -2.7635   -0.4484    0.0403 C.2       1 <0>         0.5133
      3 O1         -1.8636   -1.0761   -0.4764 O.2       1 <0>        -0.5326
      4 N1         -3.7244   -1.0929    0.7315 N.am      1 <0>        -0.7318
      5 C3         -3.6818   -2.5518    0.8586 C.3       1 <0>         0.1328
      6 H1         -4.5345   -2.8903    1.4472 H         1 <0>         0.1056
      7 C4         -3.7379   -3.1868   -0.5323 C.3       1 <0>        -0.0982
      8 C5         -5.0682   -2.8808   -1.1709 C.ar      1 <0>        -0.0284
      9 C6         -6.1370   -3.7370   -0.9842 C.ar      1 <0>        -0.1645
     10 C7         -7.3597   -3.4572   -1.5708 C.ar      1 <0>         0.1401
     11 C8         -7.5115   -2.3192   -2.3440 C.ar      1 <0>        -0.1922
     12 C9         -6.4405   -1.4622   -2.5300 C.ar      1 <0>         0.1387
     13 C10        -5.2202   -1.7413   -1.9381 C.ar      1 <0>        -0.1582
     14 F1         -6.5872   -0.3511   -3.2844 F         1 <0>        -0.1259
     15 F2         -8.4040   -4.2947   -1.3888 F         1 <0>        -0.1253
     16 C11        -2.3843   -2.9653    1.5560 C.3       1 <0>         0.0695
     17 H2         -1.5316   -2.6269    0.9674 H         1 <0>         0.1452
     18 C12        -2.3282   -2.3304    2.9469 C.3       1 <0>        -0.0589
     19 N2         -1.0314   -2.6286    3.5693 N.4       1 <0>        -0.4956
     20 C13        -0.9599   -1.9812    4.8861 C.3       1 <0>         0.0751
     21 C14         0.3797   -2.3174    5.5552 C.3       1 <0>        -0.1315
     22 C15         0.5329   -3.8409    5.5761 C.3       1 <0>        -0.1634
     23 C16        -0.7306   -4.4747    6.0809 C.2       1 <0>         0.1914
     24 C17        -0.6640   -5.9116    6.5303 C.3       1 <0>        -0.1277
     25 N3         -1.8441   -3.8871    6.1551 N.2       1 <0>        -0.5283
     26 C18        -2.0886   -2.5015    5.7781 C.3       1 <0>         0.0364
     27 C19        -1.0873   -0.4883    4.7252 C.ar      1 <0>        -0.1195
     28 C20        -0.7441    0.1096    3.5267 C.ar      1 <0>        -0.1377
     29 C21        -0.8609    1.4789    3.3792 C.ar      1 <0>        -0.0941
     30 C22        -1.3214    2.2506    4.4298 C.ar      1 <0>        -0.0966
     31 C23        -1.6653    1.6528    5.6276 C.ar      1 <0>        -0.0423
     32 C24        -1.5525    0.2826    5.7738 C.ar      1 <0>        -0.0893
     33 C25        -2.1667    2.4941    6.7730 C.3       1 <0>        -0.0350
     34 C26        -2.1991    3.9641    6.3501 C.3       1 <0>        -0.1509
     35 C27        -3.5771    2.0429    7.1579 C.3       1 <0>        -0.1415
     36 C28        -1.2330    2.3292    7.9738 C.3       1 <0>        -0.1426
     37 O2         -2.3428   -4.3884    1.6800 O.3       1 <0>        -0.5425
     38 H3         -1.9545    1.3907   -0.6790 H         1 <0>         0.1002
     39 H4         -3.7316    1.3469   -0.5873 H         1 <0>         0.0960
     40 H5         -2.7672    1.5046    0.9005 H         1 <0>         0.0907
     41 H6         -4.4441   -0.5909    1.1448 H         1 <0>         0.4118
     42 H7         -2.9366   -2.7807   -1.1497 H         1 <0>         0.1084
     43 H8         -3.6170   -4.2664   -0.4440 H         1 <0>         0.1017
     44 H9         -6.0184   -4.6249   -0.3808 H         1 <0>         0.1433
     45 H10        -8.4646   -2.1003   -2.8022 H         1 <0>         0.1524
     46 H11        -4.3856   -1.0705   -2.0794 H         1 <0>         0.1360
     47 H12        -2.4491   -1.2507    2.8586 H         1 <0>         0.1480
     48 H13        -3.1295   -2.7364    3.5643 H         1 <0>         0.1386
     49 H14        -0.9328   -3.6267    3.6795 H         1 <0>         0.4289
     50 H15         1.1968   -1.8732    4.9867 H         1 <0>         0.1045
     51 H16         0.3888   -1.9319    6.5747 H         1 <0>         0.1165
     52 H17         0.1063   -6.4343    5.9633 H         1 <0>         0.0840
     53 H18         0.7389   -4.1979    4.5671 H         1 <0>         0.0931
     54 H19        -0.4218   -5.9492    7.5924 H         1 <0>         0.0924
     55 H20        -1.6283   -6.3905    6.3603 H         1 <0>         0.0868
     56 H21         1.3608   -4.1126    6.2310 H         1 <0>         0.1248
     57 H22        -2.1472   -1.8892    6.6779 H         1 <0>         0.1279
     58 H23        -3.0330   -2.4369    5.2376 H         1 <0>         0.1121
     59 H24        -0.3844   -0.4932    2.7060 H         1 <0>         0.1131
     60 H25        -0.5922    1.9460    2.4432 H         1 <0>         0.1363
     61 H26        -1.4120    3.3206    4.3148 H         1 <0>         0.1412
     62 H27        -1.8248   -0.1850    6.7085 H         1 <0>         0.1324
     63 H28        -2.8642    4.0815    5.4946 H         1 <0>         0.0614
     64 H29        -2.5618    4.5726    7.1786 H         1 <0>         0.0678
     65 H30        -1.1943    4.2855    6.0759 H         1 <0>         0.0618
     66 H31        -3.5541    0.9956    7.4591 H         1 <0>         0.0551
     67 H32        -3.9398    2.6514    7.9863 H         1 <0>         0.0682
     68 H33        -4.2423    2.1604    6.3024 H         1 <0>         0.0588
     69 H34        -0.2282    2.6506    7.6996 H         1 <0>         0.0597
     70 H35        -1.5957    2.9377    8.8022 H         1 <0>         0.0683
     71 H36        -1.2100    1.2819    8.2751 H         1 <0>         0.0550
     72 H37        -3.0735   -4.7599    2.1930 H         1 <0>         0.3881
     73 H38        -0.2885   -2.2800    2.9823 H         1 <0>         0.4264
@<TRIPOS>BOND
     1    1    2 1
     2    1   38 1
     3    1   39 1
     4    1   40 1
     5    2    3 2
     6    2    4 am
     7    4    5 1
     8    4   41 1
     9    5    6 1
    10    5    7 1
    11    5   16 1
    12    7    8 1
    13    7   42 1
    14    7   43 1
    15    8   13 ar
    16    8    9 ar
    17    9   10 ar
    18    9   44 1
    19   10   11 ar
    20   10   15 1
    21   11   12 ar
    22   11   45 1
    23   12   13 ar
    24   12   14 1
    25   13   46 1
    26   16   17 1
    27   16   18 1
    28   16   37 1
    29   18   19 1
    30   18   47 1
    31   18   48 1
    32   19   20 1
    33   19   49 1
    34   19   73 1
    35   20   26 1
    36   20   21 1
    37   20   27 1
    38   21   50 1
    39   21   51 1
    40   21   22 1
    41   22   23 1
    42   22   53 1
    43   22   56 1
    44   23   24 1
    45   23   25 2
    46   24   54 1
    47   24   55 1
    48   24   52 1
    49   25   26 1
    50   26   57 1
    51   26   58 1
    52   27   32 ar
    53   27   28 ar
    54   28   29 ar
    55   28   59 1
    56   29   30 ar
    57   29   60 1
    58   30   31 ar
    59   30   61 1
    60   31   32 ar
    61   31   33 1
    62   32   62 1
    63   33   34 1
    64   33   35 1
    65   33   36 1
    66   34   63 1
    67   34   64 1
    68   34   65 1
    69   35   66 1
    70   35   67 1
    71   35   68 1
    72   36   69 1
    73   36   70 1
    74   36   71 1
    75   37   72 1
@<TRIPOS>MOLECULE
CHEMBL584547__1
   73    75     0     0     0
SMALL
USER_CHARGES

@<TRIPOS>ATOM
      1 C1         -0.3966    2.3854    0.4894 C.3       1 <0>        -0.1835
      2 C2         -0.5874    0.9094    0.2527 C.2       1 <0>         0.5134
      3 O1          0.3542    0.2223   -0.0826 O.2       1 <0>        -0.5326
      4 N1         -1.8043    0.3529    0.4135 N.am      1 <0>        -0.7334
      5 C3         -1.9897   -1.0820    0.1834 C.3       1 <0>         0.1332
      6 H1         -3.0320   -1.3468    0.3612 H         1 <0>         0.1054
      7 C4         -1.6172   -1.4191   -1.2617 C.3       1 <0>        -0.0984
      8 C5         -2.5789   -0.7373   -2.2005 C.ar      1 <0>        -0.0284
      9 C6         -3.7393   -1.3806   -2.5875 C.ar      1 <0>        -0.1647
     10 C7         -4.6234   -0.7552   -3.4504 C.ar      1 <0>         0.1397
     11 C8         -4.3449    0.5149   -3.9251 C.ar      1 <0>        -0.1922
     12 C9         -3.1827    1.1585   -3.5364 C.ar      1 <0>         0.1391
     13 C10        -2.3025    0.5332   -2.6693 C.ar      1 <0>        -0.1579
     14 F1         -2.9096    2.3981   -3.9988 F         1 <0>        -0.1256
     15 F2         -5.7572   -1.3846   -3.8293 F         1 <0>        -0.1256
     16 C11        -1.0929   -1.8719    1.1388 C.3       1 <0>         0.0693
     17 H2         -0.0506   -1.6071    0.9610 H         1 <0>         0.1456
     18 C12        -1.4654   -1.5348    2.5840 C.3       1 <0>        -0.0574
     19 N2         -0.5280   -2.1994    3.4991 N.4       1 <0>        -0.4961
     20 C13        -0.9599   -1.9812    4.8861 C.3       1 <0>         0.0752
     21 C14         0.0521   -2.6172    5.8487 C.3       1 <0>        -0.1311
     22 C15         1.4410   -2.0675    5.5114 C.3       1 <0>        -0.1634
     23 C16         1.3804   -0.5739    5.3757 C.2       1 <0>         0.1903
     24 C17         2.6798    0.1881    5.4200 C.3       1 <0>        -0.1278
     25 N3          0.3167    0.0871    5.2269 N.2       1 <0>        -0.5270
     26 C18        -1.0238   -0.4804    5.1758 C.3       1 <0>         0.0361
     27 C19        -2.3189   -2.5973    5.0973 C.ar      1 <0>        -0.1192
     28 C20        -2.7443   -3.6294    4.2817 C.ar      1 <0>        -0.1415
     29 C21        -3.9907   -4.1944    4.4754 C.ar      1 <0>        -0.0932
     30 C22        -4.8119   -3.7279    5.4851 C.ar      1 <0>        -0.0974
     31 C23        -4.3862   -2.6967    6.3011 C.ar      1 <0>        -0.0420
     32 C24        -3.1377   -2.1344    6.1100 C.ar      1 <0>        -0.0898
     33 C25        -5.2814   -2.1879    7.4014 C.3       1 <0>        -0.0352
     34 C26        -6.5921   -2.9771    7.3985 C.3       1 <0>        -0.1511
     35 C27        -4.5823   -2.3652    8.7507 C.3       1 <0>        -0.1425
     36 C28        -5.5787   -0.7047    7.1721 C.3       1 <0>        -0.1415
     37 O2         -1.2738   -3.2715    0.9143 O.3       1 <0>        -0.5421
     38 H3          0.6457    2.6502    0.3116 H         1 <0>         0.1002
     39 H4         -1.0355    2.9481   -0.1912 H         1 <0>         0.0956
     40 H5         -0.6620    2.6256    1.5189 H         1 <0>         0.0922
     41 H6         -2.5573    0.9024    0.6817 H         1 <0>         0.4120
     42 H7         -0.6037   -1.0737   -1.4657 H         1 <0>         0.1085
     43 H8         -1.6697   -2.4980   -1.4083 H         1 <0>         0.1014
     44 H9         -3.9564   -2.3715   -2.2171 H         1 <0>         0.1428
     45 H10        -5.0338    1.0033   -4.5984 H         1 <0>         0.1524
     46 H11        -1.3978    1.0368   -2.3624 H         1 <0>         0.1364
     47 H12        -1.4129   -0.4559    2.7305 H         1 <0>         0.1423
     48 H13        -2.4789   -1.8802    2.7880 H         1 <0>         0.1434
     49 H14        -0.5119   -3.1892    3.3036 H         1 <0>         0.4299
     50 H15        -0.2057   -2.3603    6.8761 H         1 <0>         0.1166
     51 H16         0.0449   -3.7004    5.7274 H         1 <0>         0.1048
     52 H17         3.3941   -0.3476    6.0453 H         1 <0>         0.0857
     53 H18         2.1377   -2.3307    6.3073 H         1 <0>         0.1250
     54 H19         3.0801    0.2827    4.4105 H         1 <0>         0.0889
     55 H20         2.5052    1.1803    5.8360 H         1 <0>         0.0883
     56 H21         1.7845   -2.5026    4.5729 H         1 <0>         0.0921
     57 H22        -1.5937    0.0138    4.3889 H         1 <0>         0.1115
     58 H23        -1.5195   -0.3197    6.1332 H         1 <0>         0.1283
     59 H24        -2.1029   -3.9938    3.4929 H         1 <0>         0.1164
     60 H25        -4.3233   -5.0002    3.8378 H         1 <0>         0.1373
     61 H26        -5.7861   -4.1689    5.6361 H         1 <0>         0.1411
     62 H27        -2.8035   -1.3312    6.7500 H         1 <0>         0.1321
     63 H28        -6.3803   -4.0338    7.5619 H         1 <0>         0.0619
     64 H29        -7.2396   -2.6091    8.1943 H         1 <0>         0.0678
     65 H30        -7.0902   -2.8508    6.4372 H         1 <0>         0.0615
     66 H31        -3.6485   -1.8030    8.7528 H         1 <0>         0.0551
     67 H32        -5.2298   -1.9972    9.5466 H         1 <0>         0.0683
     68 H33        -4.3705   -3.4219    8.9141 H         1 <0>         0.0597
     69 H34        -6.0767   -0.5783    6.2108 H         1 <0>         0.0588
     70 H35        -6.2262   -0.3366    7.9679 H         1 <0>         0.0683
     71 H36        -4.6449   -0.1424    7.1742 H         1 <0>         0.0551
     72 H37        -2.1800   -3.5784    1.0544 H         1 <0>         0.3864
     73 H38         0.3965   -1.8161    3.3704 H         1 <0>         0.4255
@<TRIPOS>BOND
     1    1    2 1
     2    1   38 1
     3    1   39 1
     4    1   40 1
     5    2    3 2
     6    2    4 am
     7    4    5 1
     8    4   41 1
     9    5    6 1
    10    5    7 1
    11    5   16 1
    12    7    8 1
    13    7   42 1
    14    7   43 1
    15    8   13 ar
    16    8    9 ar
    17    9   10 ar
    18    9   44 1
    19   10   11 ar
    20   10   15 1
    21   11   12 ar
    22   11   45 1
    23   12   13 ar
    24   12   14 1
    25   13   46 1
    26   16   17 1
    27   16   18 1
    28   16   37 1
    29   18   19 1
    30   18   47 1
    31   18   48 1
    32   19   20 1
    33   19   49 1
    34   19   73 1
    35   20   26 1
    36   20   21 1
    37   20   27 1
    38   21   50 1
    39   21   51 1
    40   21   22 1
    41   22   23 1
    42   22   53 1
    43   22   56 1
    44   23   24 1
    45   23   25 2
    46   24   54 1
    47   24   55 1
    48   24   52 1
    49   25   26 1
    50   26   57 1
    51   26   58 1
    52   27   32 ar
    53   27   28 ar
    54   28   29 ar
    55   28   59 1
    56   29   30 ar
    57   29   60 1
    58   30   31 ar
    59   30   61 1
    60   31   32 ar
    61   31   33 1
    62   32   62 1
    63   33   34 1
    64   33   35 1
    65   33   36 1
    66   34   63 1
    67   34   64 1
    68   34   65 1
    69   35   66 1
    70   35   67 1
    71   35   68 1
    72   36   69 1
    73   36   70 1
    74   36   71 1
    75   37   72 1
@<TRIPOS>MOLECULE
CHEMBL494186
   51    53     0     0     0
SMALL
USER_CHARGES

@<TRIPOS>ATOM
      1 C1         -0.0178    1.4608    0.0101 C.3       1 <0>         0.0627
      2 N1          0.0021   -0.0041    0.0020 N.pl3     1 <0>        -0.4491
      3 C2          0.0081   -0.8167   -1.1092 C.2       1 <0>         0.0312
      4 C3          0.0273   -2.0853   -0.6665 C.2       1 <0>         0.0470
      5 N2          0.0331   -2.0638    0.6772 N.pl3     1 <0>        -0.5244
      6 C4          0.0240   -0.8188    1.0910 C.cat     1 <0>         0.5866
      7 N3          0.0315   -0.4045    2.4126 N.pl3     1 <0>        -0.7994
      8 C5          0.0395   -3.3209   -1.5293 C.3       1 <0>         0.0376
      9 C6         -0.7697   -4.4264   -0.8483 C.3       1 <0>        -0.0698
     10 C7         -2.2163   -4.0120   -0.7658 C.ar      1 <0>        -0.1252
     11 C8         -2.6970   -3.4033    0.3776 C.ar      1 <0>        -0.0254
     12 C9         -4.0239   -3.0229    0.4538 C.ar      1 <0>        -0.0852
     13 C10        -4.8733   -3.2503   -0.6135 C.ar      1 <0>        -0.0063
     14 C11        -4.3976   -3.8585   -1.7587 C.ar      1 <0>        -0.1993
     15 C12        -3.0649   -4.2361   -1.8400 C.ar      1 <0>         0.1946
     16 O1         -2.5932   -4.8300   -2.9677 O.3       1 <0>        -0.2963
     17 C13        -3.5237   -5.0292   -4.0338 C.3       1 <0>         0.0155
     18 N4         -4.5363   -2.3715    1.6801 N.pl3     1 <0>         0.0381
     19 O2         -3.7947   -2.1725    2.6139 O.2       1 <0>        -0.1728
     20 O3         -5.6965   -2.0383    1.7479 O.3       1 <0>        -0.1460
     21 C14         1.4603   -3.7847   -1.7225 C.ar      1 <0>        -0.1394
     22 C15         2.2255   -4.1396   -0.6270 C.ar      1 <0>        -0.0734
     23 C16         3.5283   -4.5646   -0.8014 C.ar      1 <0>        -0.1474
     24 C17         4.0686   -4.6356   -2.0772 C.ar      1 <0>         0.1449
     25 C18         3.2986   -4.2794   -3.1749 C.ar      1 <0>        -0.2026
     26 C19         1.9946   -3.8599   -2.9955 C.ar      1 <0>        -0.0563
     27 O4          5.3501   -5.0530   -2.2514 O.3       1 <0>        -0.3132
     28 C20         5.8400   -5.1013   -3.5929 C.3       1 <0>         0.0236
     29 H1          1.0048    1.8381    0.0023 H         1 <0>         0.1058
     30 H2         -0.5450    1.8219   -0.8730 H         1 <0>         0.1185
     31 H3         -0.5280    1.8123    0.9069 H         1 <0>         0.1030
     32 H4         -0.0011   -0.4957   -2.1403 H         1 <0>         0.2197
     33 H5          0.0207    0.5421    2.6242 H         1 <0>         0.4385
     34 H6          0.0475   -1.0609    3.1266 H         1 <0>         0.4405
     35 H7         -0.4028   -3.0914   -2.4987 H         1 <0>         0.1245
     36 H8         -0.6877   -5.3461   -1.4276 H         1 <0>         0.1143
     37 H9         -0.3820   -4.5942    0.1565 H         1 <0>         0.0773
     38 H10        -2.0357   -3.2249    1.2126 H         1 <0>         0.1389
     39 H11        -5.9095   -2.9525   -0.5513 H         1 <0>         0.1618
     40 H12        -5.0614   -4.0362   -2.5919 H         1 <0>         0.1592
     41 H13        -4.3410   -5.6626   -3.6891 H         1 <0>         0.0679
     42 H14        -3.9208   -4.0660   -4.3541 H         1 <0>         0.0671
     43 H15        -3.0190   -5.5108   -4.8713 H         1 <0>         0.1161
     44 H16         1.8044   -4.0841    0.3660 H         1 <0>         0.1148
     45 H17         4.1258   -4.8411    0.0547 H         1 <0>         0.1354
     46 H18         3.7170   -4.3337   -4.1691 H         1 <0>         0.1358
     47 H19         1.3934   -3.5867   -3.8501 H         1 <0>         0.1318
     48 H20         6.8727   -5.4501   -3.5902 H         1 <0>         0.1072
     49 H21         5.2269   -5.7856   -4.1792 H         1 <0>         0.0605
     50 H22         5.7942   -4.1049   -4.0325 H         1 <0>         0.0592
     51 H23         0.0463   -2.8459    1.2509 H         1 <0>         0.4522
@<TRIPOS>BOND
     1    1    2 1
     2    1   29 1
     3    1   30 1
     4    1   31 1
     5    2    6 1
     6    2    3 1
     7    3    4 2
     8    3   32 1
     9    4    5 1
    10    4    8 1
    11    5    6 2
    12    5   51 1
    13    6    7 1
    14    7   33 1
    15    7   34 1
    16    8    9 1
    17    8   21 1
    18    8   35 1
    19    9   10 1
    20    9   36 1
    21    9   37 1
    22   10   15 ar
    23   10   11 ar
    24   11   12 ar
    25   11   38 1
    26   12   13 ar
    27   12   18 1
    28   13   14 ar
    29   13   39 1
    30   14   15 ar
    31   14   40 1
    32   15   16 1
    33   16   17 1
    34   17   41 1
    35   17   42 1
    36   17   43 1
    37   18   19 2
    38   18   20 1
    39   21   26 ar
    40   21   22 ar
    41   22   23 ar
    42   22   44 1
    43   23   24 ar
    44   23   45 1
    45   24   25 ar
    46   24   27 1
    47   25   26 ar
    48   25   46 1
    49   26   47 1
    50   27   28 1
    51   28   48 1
    52   28   49 1
    53   28   50 1
@<TRIPOS>MOLECULE
CHEMBL494186__1
   51    53     0     0     0
SMALL
USER_CHARGES

@<TRIPOS>ATOM
      1 C1         -0.1131    1.2979    0.3671 C.3       1 <0>         0.0632
      2 N1         -0.1903   -0.1589    0.2325 N.pl3     1 <0>        -0.4489
      3 C2          0.0593   -0.8902   -0.9068 C.2       1 <0>         0.0334
      4 C3         -0.1264   -2.1830   -0.5909 C.2       1 <0>         0.0513
      5 N2         -0.4803   -2.2549    0.7036 N.pl3     1 <0>        -0.5186
      6 C4         -0.5165   -1.0456    1.2111 C.cat     1 <0>         0.5828
      7 N3         -0.8364   -0.7258    2.5202 N.pl3     1 <0>        -0.8045
      8 C5          0.0339   -3.3522   -1.5280 C.3       1 <0>         0.0330
      9 C6          0.9943   -4.3716   -0.9120 C.3       1 <0>        -0.0634
     10 C7          1.2131   -5.5049   -1.8809 C.ar      1 <0>        -0.1211
     11 C8          0.5249   -6.6925   -1.7226 C.ar      1 <0>        -0.0042
     12 C9          0.7252   -7.7325   -2.6111 C.ar      1 <0>        -0.0824
     13 C10         1.6143   -7.5872   -3.6603 C.ar      1 <0>        -0.0079
     14 C11         2.3047   -6.4020   -3.8229 C.ar      1 <0>        -0.2048
     15 C12         2.1012   -5.3547   -2.9358 C.ar      1 <0>         0.1862
     16 O1          2.7754   -4.1857   -3.0967 O.3       1 <0>        -0.3041
     17 C13         3.5949   -4.0644   -4.2610 C.3       1 <0>         0.0165
     18 N4         -0.0129   -9.0038   -2.4389 N.pl3     1 <0>         0.0359
     19 O2         -0.7902   -9.1321   -1.5218 O.2       1 <0>        -0.1576
     20 O3          0.1614   -9.9140   -3.2154 O.3       1 <0>        -0.1553
     21 C14        -1.3073   -4.0001   -1.7569 C.ar      1 <0>        -0.1392
     22 C15        -2.0156   -4.5168   -0.6878 C.ar      1 <0>        -0.0832
     23 C16        -3.2451   -5.1116   -0.8951 C.ar      1 <0>        -0.1413
     24 C17        -3.7692   -5.1899   -2.1772 C.ar      1 <0>         0.1459
     25 C18        -3.0567   -4.6704   -3.2482 C.ar      1 <0>        -0.2008
     26 C19        -1.8300   -4.0719   -3.0350 C.ar      1 <0>        -0.0586
     27 O4         -4.9783   -5.7750   -2.3837 O.3       1 <0>        -0.3110
     28 C20        -5.4557   -5.8201   -3.7299 C.3       1 <0>         0.0238
     29 H1          0.8970    1.5825    0.6619 H         1 <0>         0.1057
     30 H2         -0.3583    1.7644   -0.5870 H         1 <0>         0.1193
     31 H3         -0.8206    1.6306    1.1267 H         1 <0>         0.1021
     32 H4          0.3489   -0.4993   -1.8710 H         1 <0>         0.2215
     33 H5         -0.9107    0.2035    2.7881 H         1 <0>         0.4379
     34 H6         -0.9861   -1.4311    3.1690 H         1 <0>         0.4391
     35 H7          0.4358   -3.0031   -2.4792 H         1 <0>         0.1256
     36 H8          1.9474   -3.8888   -0.6965 H         1 <0>         0.0976
     37 H9          0.5670   -4.7610    0.0121 H         1 <0>         0.0783
     38 H10        -0.1697   -6.8086   -0.9039 H         1 <0>         0.1561
     39 H11         1.7693   -8.4013   -4.3529 H         1 <0>         0.1595
     40 H12         2.9992   -6.2892   -4.6422 H         1 <0>         0.1559
     41 H13         4.2864   -4.9056   -4.3079 H         1 <0>         0.0664
     42 H14         2.9646   -4.0622   -5.1503 H         1 <0>         0.0665
     43 H15         4.1587   -3.1328   -4.2130 H         1 <0>         0.1118
     44 H16        -1.6072   -4.4556    0.3101 H         1 <0>         0.1115
     45 H17        -3.7977   -5.5157   -0.0597 H         1 <0>         0.1378
     46 H18        -3.4625   -4.7301   -4.2473 H         1 <0>         0.1347
     47 H19        -1.2769   -3.6633   -3.8678 H         1 <0>         0.1283
     48 H20        -6.4283   -6.3116   -3.7542 H         1 <0>         0.1084
     49 H21        -5.5518   -4.8052   -4.1155 H         1 <0>         0.0589
     50 H22        -4.7512   -6.3780   -4.3467 H         1 <0>         0.0593
     51 H23        -0.6743   -3.0727    1.1878 H         1 <0>         0.4529
@<TRIPOS>BOND
     1    1    2 1
     2    1   29 1
     3    1   30 1
     4    1   31 1
     5    2    6 1
     6    2    3 1
     7    3    4 2
     8    3   32 1
     9    4    5 1
    10    4    8 1
    11    5    6 2
    12    5   51 1
    13    6    7 1
    14    7   33 1
    15    7   34 1
    16    8    9 1
    17    8   21 1
    18    8   35 1
    19    9   10 1
    20    9   36 1
    21    9   37 1
    22   10   15 ar
    23   10   11 ar
    24   11   12 ar
    25   11   38 1
    26   12   13 ar
    27   12   18 1
    28   13   14 ar
    29   13   39 1
    30   14   15 ar
    31   14   40 1
    32   15   16 1
    33   16   17 1
    34   17   41 1
    35   17   42 1
    36   17   43 1
    37   18   19 2
    38   18   20 1
    39   21   26 ar
    40   21   22 ar
    41   22   23 ar
    42   22   44 1
    43   23   24 ar
    44   23   45 1
    45   24   25 ar
    46   24   27 1
    47   25   26 ar
    48   25   46 1
    49   26   47 1
    50   27   28 1
    51   28   48 1
    52   28   49 1
    53   28   50 1
@<TRIPOS>MOLECULE
CHEMBL1092147
   71    74     0     0     0
SMALL
USER_CHARGES

@<TRIPOS>ATOM
      1 C1          0.0923    1.4474    0.1261 C.3       1 <0>        -0.1614
      2 C2          0.0697   -0.0817    0.0765 C.3       1 <0>         0.1852
      3 H1          0.5827   -0.4812    0.9514 H         1 <0>         0.1052
      4 C3          0.7663   -0.5541   -1.1735 C.ar      1 <0>        -0.1056
      5 C4          0.1004   -0.5339   -2.3849 C.ar      1 <0>        -0.0889
      6 C5          0.7383   -0.9665   -3.5319 C.ar      1 <0>        -0.1515
      7 C6          2.0449   -1.4203   -3.4676 C.ar      1 <0>         0.1039
      8 C7          2.7107   -1.4401   -2.2538 C.ar      1 <0>        -0.1449
      9 C8          2.0725   -1.0021   -1.1090 C.ar      1 <0>        -0.0724
     10 F1          2.6693   -1.8439   -4.5883 F         1 <0>        -0.1357
     11 N1         -1.3186   -0.5495    0.0685 N.am      1 <0>        -0.7188
     12 C9         -1.9836   -0.7061    1.2302 C.2       1 <0>         0.5610
     13 O1         -1.4316   -0.4592    2.2846 O.2       1 <0>        -0.5140
     14 C10        -3.3850   -1.1784    1.2221 C.ar      1 <0>        -0.1098
     15 C11        -4.0169   -1.4672    0.0138 C.ar      1 <0>        -0.0344
     16 C12        -5.3366   -1.9117    0.0104 C.ar      1 <0>        -0.0371
     17 C13        -6.0224   -2.0665    1.2153 C.ar      1 <0>        -0.0891
     18 C14        -5.3912   -1.7784    2.4167 C.ar      1 <0>         0.1661
     19 C15        -4.0744   -1.3408    2.4243 C.ar      1 <0>        -0.0270
     20 N2         -6.0812   -1.9342    3.6218 N.pl3     1 <0>        -0.9557
     21 C16        -5.5595   -2.8340    4.6535 C.3       1 <0>         0.0817
     22 S1         -7.4885   -1.1017    3.8837 S.o2      1 <0>         2.5959
     23 O2         -7.5119   -0.8605    5.2839 O.2       1 <0>        -0.9295
     24 O3         -7.4468   -0.0202    2.9629 O.2       1 <0>        -0.9390
     25 C17        -8.8075   -2.2604    3.4272 C.3       1 <0>        -0.6736
     26 C18        -6.0114   -2.2190   -1.2706 C.2       1 <0>         0.3675
     27 N3         -5.4805   -2.1155   -2.4719 N.2       1 <0>        -0.5276
     28 C19        -6.3731   -2.4740   -3.3904 C.2       1 <0>         0.1760
     29 N4         -7.4885   -2.8126   -2.7972 N.2       1 <0>        -0.2528
     30 H2         -7.9208   -2.8381   -0.7090 H         1 <0>         0.4541
     31 N5         -7.2810   -2.6617   -1.4165 N.pl3     1 <0>        -0.4545
     32 C20        -6.1370   -2.4871   -4.8788 C.3       1 <0>         0.1829
     33 C21        -5.0700   -3.5303   -5.2167 C.3       1 <0>        -0.1752
     34 C22        -7.4404   -2.8389   -5.5988 C.3       1 <0>        -0.0879
     35 C23        -7.2043   -2.8520   -7.0871 C.ar      1 <0>        -0.1276
     36 C24        -7.3737   -1.6948   -7.8240 C.ar      1 <0>        -0.1415
     37 C25        -7.1572   -1.7068   -9.1892 C.ar      1 <0>        -0.1064
     38 C26        -6.7708   -2.8759   -9.8175 C.ar      1 <0>        -0.1012
     39 C27        -6.6005   -4.0329   -9.0805 C.ar      1 <0>        -0.1052
     40 C28        -6.8129   -4.0199   -7.7146 C.ar      1 <0>        -0.1015
     41 N6         -5.6800   -1.1605   -5.3137 N.4       1 <0>        -0.6303
     42 H3          1.1252    1.7955    0.1320 H         1 <0>         0.0741
     43 H4         -0.4206    1.8468   -0.7488 H         1 <0>         0.0600
     44 H5         -0.4115    1.7891    1.0302 H         1 <0>         0.0699
     45 H6         -0.9188   -0.1802   -2.4347 H         1 <0>         0.1273
     46 H7          0.2178   -0.9509   -4.4781 H         1 <0>         0.1353
     47 H8          3.7298   -1.7942   -2.2024 H         1 <0>         0.1419
     48 H9          2.5932   -1.0133   -0.1628 H         1 <0>         0.1394
     49 H10        -1.7591   -0.7466   -0.7729 H         1 <0>         0.3974
     50 H11        -3.4843   -1.3463   -0.9179 H         1 <0>         0.1464
     51 H12        -7.0460   -2.4109    1.2128 H         1 <0>         0.1274
     52 H13        -3.5841   -1.1214    3.3613 H         1 <0>         0.1579
     53 H14        -4.8947   -2.2801    5.3163 H         1 <0>         0.0765
     54 H15        -6.3882   -3.2447    5.2302 H         1 <0>         0.0848
     55 H16        -5.0074   -3.6467    4.1814 H         1 <0>         0.0833
     56 H17        -8.7426   -3.1499    4.0538 H         1 <0>         0.1360
     57 H18        -9.7767   -1.7834    3.5728 H         1 <0>         0.1389
     58 H19        -8.6957   -2.5442    2.3808 H         1 <0>         0.1213
     59 H20        -5.4092   -4.5146   -4.8940 H         1 <0>         0.1086
     60 H21        -4.8993   -3.5397   -6.2932 H         1 <0>         0.0989
     61 H22        -4.1415   -3.2796   -4.7038 H         1 <0>         0.0947
     62 H23        -7.7795   -3.8232   -5.2760 H         1 <0>         0.1264
     63 H24        -8.2005   -2.0957   -5.3580 H         1 <0>         0.1045
     64 H25        -7.6756   -0.7813   -7.3331 H         1 <0>         0.1233
     65 H26        -7.2902   -0.8028   -9.7651 H         1 <0>         0.1327
     66 H27        -6.6023   -2.8855  -10.8842 H         1 <0>         0.1328
     67 H28        -6.2990   -4.9464   -9.5714 H         1 <0>         0.1335
     68 H29        -6.6762   -4.9229   -7.1382 H         1 <0>         0.1311
     69 H30        -4.8204   -0.9285   -4.8389 H         1 <0>         0.4414
     70 H31        -5.5219   -1.1693   -6.3102 H         1 <0>         0.4398
     71 H32        -6.3836   -0.4725   -5.0909 H         1 <0>         0.4350
@<TRIPOS>BOND
     1    1    2 1
     2    1   42 1
     3    1   43 1
     4    1   44 1
     5    2    3 1
     6    2    4 1
     7    2   11 1
     8    4    9 ar
     9    4    5 ar
    10    5    6 ar
    11    5   45 1
    12    6    7 ar
    13    6   46 1
    14    7    8 ar
    15    7   10 1
    16    8    9 ar
    17    8   47 1
    18    9   48 1
    19   11   12 am
    20   11   49 1
    21   12   13 2
    22   12   14 1
    23   14   19 ar
    24   14   15 ar
    25   15   16 ar
    26   15   50 1
    27   16   17 ar
    28   16   26 1
    29   17   18 ar
    30   17   51 1
    31   18   19 ar
    32   18   20 1
    33   19   52 1
    34   20   21 1
    35   20   22 1
    36   21   53 1
    37   21   54 1
    38   21   55 1
    39   22   23 2
    40   22   24 2
    41   22   25 1
    42   25   56 1
    43   25   57 1
    44   25   58 1
    45   26   27 2
    46   26   31 1
    47   27   28 1
    48   28   32 1
    49   28   29 2
    50   29   31 1
    51   30   31 1
    52   32   33 1
    53   32   34 1
    54   32   41 1
    55   33   59 1
    56   33   60 1
    57   33   61 1
    58   34   35 1
    59   34   62 1
    60   34   63 1
    61   35   40 ar
    62   35   36 ar
    63   36   37 ar
    64   36   64 1
    65   37   38 ar
    66   37   65 1
    67   38   39 ar
    68   38   66 1
    69   39   40 ar
    70   39   67 1
    71   40   68 1
    72   41   69 1
    73   41   70 1
    74   41   71 1
@<TRIPOS>MOLECULE
CHEMBL1092147__1
   70    73     0     0     0
SMALL
USER_CHARGES

@<TRIPOS>ATOM
      1 C1          0.0616    1.3389   -0.0280 C.3       1 <0>        -0.1601
      2 C2          0.0267   -0.1905   -0.0508 C.3       1 <0>         0.1859
      3 H1          0.5504   -0.5790    0.8226 H         1 <0>         0.1027
      4 C3          0.6998   -0.6897   -1.3033 C.ar      1 <0>        -0.1061
      5 C4          0.0151   -0.6850   -2.5043 C.ar      1 <0>        -0.0843
      6 C5          0.6315   -1.1421   -3.6536 C.ar      1 <0>        -0.1465
      7 C6          1.9354   -1.6049   -3.6019 C.ar      1 <0>         0.1016
      8 C7          2.6203   -1.6091   -2.3986 C.ar      1 <0>        -0.1487
      9 C8          2.0036   -1.1466   -1.2516 C.ar      1 <0>        -0.0759
     10 F1          2.5389   -2.0524   -4.7248 F         1 <0>        -0.1376
     11 N1         -1.3650   -0.6476   -0.0291 N.am      1 <0>        -0.7198
     12 C9         -2.0128   -0.7791    1.1455 C.2       1 <0>         0.5674
     13 O1         -1.4424   -0.5185    2.1867 O.2       1 <0>        -0.5286
     14 C10        -3.4176   -1.2405    1.1674 C.ar      1 <0>        -0.1156
     15 C11        -4.0711   -1.5453   -0.0258 C.ar      1 <0>        -0.0461
     16 C12        -5.3922   -1.9794   -0.0011 C.ar      1 <0>        -0.0009
     17 C13        -6.0599   -2.1090    1.2149 C.ar      1 <0>        -0.0584
     18 C14        -5.4089   -1.8050    2.4021 C.ar      1 <0>         0.1497
     19 C15        -4.0891   -1.3771    2.3827 C.ar      1 <0>        -0.0604
     20 N2         -6.0819   -1.9352    3.6197 N.pl3     1 <0>        -0.9531
     21 C16        -7.3180   -1.1856    3.8572 C.3       1 <0>         0.0868
     22 S1         -5.4822   -2.9368    4.7943 S.o2      1 <0>         2.5981
     23 O2         -6.6299   -3.4241    5.4759 O.2       1 <0>        -0.9431
     24 O3         -4.6170   -3.8278    4.1039 O.2       1 <0>        -0.9372
     25 C17        -4.5210   -1.8524    5.8855 C.3       1 <0>        -0.6728
     26 C18        -6.0908   -2.3042   -1.2698 C.2       1 <0>         0.2672
     27 N3         -5.5601   -2.2202   -2.4971 N.2       1 <0>        -0.5161
     28 C19        -6.4465   -2.5788   -3.3877 C.2       1 <0>         0.2590
     29 N4         -7.5822   -2.9059   -2.7452 N.pl3     1 <0>        -0.4743
     30 H2         -8.4103   -3.2096   -3.1488 H         1 <0>         0.4416
     31 N5         -7.3313   -2.7274   -1.3751 N.2       1 <0>        -0.2929
     32 C20        -6.2332   -2.6187   -4.8790 C.3       1 <0>         0.2045
     33 C21        -7.1421   -1.5882   -5.5520 C.3       1 <0>        -0.1462
     34 C22        -4.7719   -2.2928   -5.1941 C.3       1 <0>        -0.0537
     35 C23        -4.5585   -2.3327   -6.6854 C.ar      1 <0>        -0.0691
     36 C24        -4.1916   -3.5154   -7.2997 C.ar      1 <0>        -0.0905
     37 C25        -3.9959   -3.5520   -8.6676 C.ar      1 <0>        -0.1210
     38 C26        -4.1676   -2.4060   -9.4213 C.ar      1 <0>        -0.1223
     39 C27        -4.5354   -1.2235   -8.8071 C.ar      1 <0>        -0.1225
     40 C28        -4.7353   -1.1879   -7.4397 C.ar      1 <0>        -0.1177
     41 N6         -6.5556   -3.9600   -5.3841 N.3       1 <0>        -0.8174
     42 H3          1.0970    1.6790   -0.0442 H         1 <0>         0.0709
     43 H4         -0.4621    1.7274   -0.9014 H         1 <0>         0.0611
     44 H5         -0.4253    1.7000    0.8779 H         1 <0>         0.0680
     45 H6         -1.0021   -0.3242   -2.5442 H         1 <0>         0.1314
     46 H7          0.0963   -1.1386   -4.5916 H         1 <0>         0.1388
     47 H8          3.6373   -1.9702   -2.3571 H         1 <0>         0.1387
     48 H9          2.5390   -1.1457   -0.3137 H         1 <0>         0.1366
     49 H10        -1.8202   -0.8556   -0.8600 H         1 <0>         0.4016
     50 H11        -3.5525   -1.4441   -0.9677 H         1 <0>         0.1432
     51 H12        -7.0858   -2.4461    1.2335 H         1 <0>         0.1441
     52 H13        -3.5830   -1.1453    3.3081 H         1 <0>         0.1408
     53 H14        -8.1715   -1.7795    3.5304 H         1 <0>         0.0695
     54 H15        -7.4125   -0.9685    4.9212 H         1 <0>         0.0801
     55 H16        -7.2896   -0.2512    3.2968 H         1 <0>         0.0808
     56 H17        -5.1741   -1.0864    6.3036 H         1 <0>         0.1314
     57 H18        -4.0882   -2.4417    6.6939 H         1 <0>         0.1351
     58 H19        -3.7231   -1.3775    5.3147 H         1 <0>         0.1325
     59 H20        -6.9028   -0.5930   -5.1772 H         1 <0>         0.0699
     60 H21        -6.9878   -1.6171   -6.6306 H         1 <0>         0.0908
     61 H22        -8.1831   -1.8204   -5.3275 H         1 <0>         0.0552
     62 H23        -4.5326   -1.2976   -4.8193 H         1 <0>         0.0885
     63 H24        -4.1243   -3.0270   -4.7147 H         1 <0>         0.0810
     64 H25        -4.0575   -4.4108   -6.7109 H         1 <0>         0.1179
     65 H26        -3.7085   -4.4759   -9.1475 H         1 <0>         0.1185
     66 H27        -4.0140   -2.4344  -10.4900 H         1 <0>         0.1179
     67 H28        -4.6692   -0.3280   -9.3959 H         1 <0>         0.1187
     68 H29        -5.0263   -0.2649   -6.9604 H         1 <0>         0.1182
     69 H30        -5.9683   -4.6590   -4.9545 H         1 <0>         0.3505
     70 H31        -7.5320   -4.1733   -5.2458 H         1 <0>         0.3424
@<TRIPOS>BOND
     1    1    2 1
     2    1   42 1
     3    1   43 1
     4    1   44 1
     5    2    3 1
     6    2    4 1
     7    2   11 1
     8    4    9 ar
     9    4    5 ar
    10    5    6 ar
    11    5   45 1
    12    6    7 ar
    13    6   46 1
    14    7    8 ar
    15    7   10 1
    16    8    9 ar
    17    8   47 1
    18    9   48 1
    19   11   12 am
    20   11   49 1
    21   12   13 2
    22   12   14 1
    23   14   19 ar
    24   14   15 ar
    25   15   16 ar
    26   15   50 1
    27   16   17 ar
    28   16   26 1
    29   17   18 ar
    30   17   51 1
    31   18   19 ar
    32   18   20 1
    33   19   52 1
    34   20   21 1
    35   20   22 1
    36   21   53 1
    37   21   54 1
    38   21   55 1
    39   22   23 2
    40   22   24 2
    41   22   25 1
    42   25   56 1
    43   25   57 1
    44   25   58 1
    45   26   27 1
    46   26   31 2
    47   27   28 2
    48   28   32 1
    49   28   29 1
    50   29   31 1
    51   29   30 1
    52   32   33 1
    53   32   34 1
    54   32   41 1
    55   33   59 1
    56   33   60 1
    57   33   61 1
    58   34   35 1
    59   34   62 1
    60   34   63 1
    61   35   40 ar
    62   35   36 ar
    63   36   37 ar
    64   36   64 1
    65   37   38 ar
    66   37   65 1
    67   38   39 ar
    68   38   66 1
    69   39   40 ar
    70   39   67 1
    71   40   68 1
    72   41   69 1
    73   41   70 1
@<TRIPOS>MOLECULE
CHEMBL1092147__2
   71    74     0     0     0
SMALL
USER_CHARGES

@<TRIPOS>ATOM
      1 C1         -0.0226    1.3371    0.0954 C.3       1 <0>        -0.1608
      2 C2          0.0384   -0.1909    0.0460 C.3       1 <0>         0.1849
      3 H1         -0.9737   -0.5954    0.0550 H         1 <0>         0.1047
      4 C3          0.7945   -0.7024    1.2451 C.ar      1 <0>        -0.1051
      5 C4          2.1767   -0.6763    1.2527 C.ar      1 <0>        -0.0873
      6 C5          2.8712   -1.1447    2.3519 C.ar      1 <0>        -0.1503
      7 C6          2.1821   -1.6403    3.4458 C.ar      1 <0>         0.1025
      8 C7          0.7977   -1.6659    3.4370 C.ar      1 <0>        -0.1457
      9 C8          0.1053   -1.1921    2.3388 C.ar      1 <0>        -0.0730
     10 F1          2.8599   -2.0989    4.5207 F         1 <0>        -0.1367
     11 N1          0.7222   -0.6130   -1.1790 N.am      1 <0>        -0.7191
     12 C9          0.0307   -0.7323   -2.3297 C.2       1 <0>         0.5635
     13 O1         -1.1601   -0.4897   -2.3511 O.2       1 <0>        -0.5199
     14 C10         0.7209   -1.1584   -3.5662 C.ar      1 <0>        -0.1106
     15 C11         2.0856   -1.4425   -3.5415 C.ar      1 <0>        -0.0446
     16 C12         2.7312   -1.8434   -4.7064 C.ar      1 <0>        -0.0228
     17 C13         2.0138   -1.9604   -5.8950 C.ar      1 <0>        -0.0550
     18 C14         0.6555   -1.6770   -5.9188 C.ar      1 <0>         0.1570
     19 C15         0.0062   -1.2822   -4.7579 C.ar      1 <0>        -0.0514
     20 N2         -0.0606   -1.7945   -7.1129 N.pl3     1 <0>        -0.9555
     21 C16         0.3397   -1.0150   -8.2869 C.3       1 <0>         0.0853
     22 S1         -1.3619   -2.8149   -7.2010 S.o2      1 <0>         2.5965
     23 O2         -1.3711   -3.2756   -8.5452 O.2       1 <0>        -0.9386
     24 O3         -1.1826   -3.7250   -6.1245 O.2       1 <0>        -0.9387
     25 C17        -2.8042   -1.7588   -6.8926 C.3       1 <0>        -0.6714
     26 C18         4.1842   -2.1461   -4.6834 C.2       1 <0>         0.2921
     27 N3          4.9804   -2.0711   -3.6087 N.2       1 <0>        -0.4778
     28 C19         6.2004   -2.4043   -3.9380 C.2       1 <0>         0.2288
     29 N4          6.2166   -2.7050   -5.2491 N.pl3     1 <0>        -0.4683
     30 H2          6.9846   -2.9864   -5.7704 H         1 <0>         0.4456
     31 N5          4.9018   -2.5376   -5.7133 N.2       1 <0>        -0.2536
     32 C20         7.3859   -2.4443   -3.0085 C.3       1 <0>         0.1632
     33 C21         8.4069   -1.3890   -3.4384 C.3       1 <0>        -0.1825
     34 C22         6.9234   -2.1541   -1.5793 C.3       1 <0>        -0.0791
     35 C23         8.1090   -2.1941   -0.6498 C.ar      1 <0>        -0.1318
     36 C24         8.4761   -3.3835   -0.0486 C.ar      1 <0>        -0.1415
     37 C25         9.5635   -3.4202    0.8040 C.ar      1 <0>        -0.1058
     38 C26        10.2842   -2.2676    1.0550 C.ar      1 <0>        -0.0998
     39 C27         9.9177   -1.0784    0.4531 C.ar      1 <0>        -0.1050
     40 C28         8.8328   -1.0426   -0.4028 C.ar      1 <0>        -0.1017
     41 N6          8.0053   -3.7753   -3.0620 N.4       1 <0>        -0.6368
     42 H3          0.9895    1.7416    0.0864 H         1 <0>         0.0603
     43 H4         -0.5695    1.7071   -0.7719 H         1 <0>         0.0692
     44 H5         -0.5313    1.6511    1.0068 H         1 <0>         0.0732
     45 H6          2.7140   -0.2900    0.3992 H         1 <0>         0.1286
     46 H7          3.9510   -1.1245    2.3575 H         1 <0>         0.1353
     47 H8          0.2592   -2.0526    4.2896 H         1 <0>         0.1411
     48 H9         -0.9745   -1.2079    2.3336 H         1 <0>         0.1390
     49 H10         1.6725   -0.8066   -1.1618 H         1 <0>         0.3983
     50 H11         2.6406   -1.3510   -2.6195 H         1 <0>         0.1426
     51 H12         2.5155   -2.2717   -6.7993 H         1 <0>         0.1459
     52 H13        -1.0518   -1.0665   -4.7778 H         1 <0>         0.1455
     53 H14         1.0586   -1.5861   -8.8744 H         1 <0>         0.0704
     54 H15        -0.5379   -0.7992   -8.8963 H         1 <0>         0.0836
     55 H16         0.7963   -0.0796   -7.9635 H         1 <0>         0.0811
     56 H17        -2.8519   -0.9782   -7.6518 H         1 <0>         0.1334
     57 H18        -3.7114   -2.3616   -6.9338 H         1 <0>         0.1379
     58 H19        -2.7160   -1.3021   -5.9069 H         1 <0>         0.1323
     59 H20         7.9472   -0.4014   -3.3988 H         1 <0>         0.1185
     60 H21         9.2644   -1.4179   -2.7662 H         1 <0>         0.1075
     61 H22         8.7363   -1.5957   -4.4567 H         1 <0>         0.0858
     62 H23         6.4638   -1.1665   -1.5396 H         1 <0>         0.1328
     63 H24         6.1961   -2.9059   -1.2730 H         1 <0>         0.1104
     64 H25         7.9130   -4.2840   -0.2448 H         1 <0>         0.1236
     65 H26         9.8499   -4.3493    1.2742 H         1 <0>         0.1329
     66 H27        11.1334   -2.2961    1.7217 H         1 <0>         0.1330
     67 H28        10.4805   -0.1778    0.6496 H         1 <0>         0.1337
     68 H29         8.5487   -0.1142   -0.8760 H         1 <0>         0.1318
     69 H30         8.3103   -3.9667   -4.0046 H         1 <0>         0.4317
     70 H31         8.7991   -3.8020   -2.4397 H         1 <0>         0.4462
     71 H32         7.3321   -4.4712   -2.7785 H         1 <0>         0.4409
@<TRIPOS>BOND
     1    1    2 1
     2    1   42 1
     3    1   43 1
     4    1   44 1
     5    2    3 1
     6    2    4 1
     7    2   11 1
     8    4    9 ar
     9    4    5 ar
    10    5    6 ar
    11    5   45 1
    12    6    7 ar
    13    6   46 1
    14    7    8 ar
    15    7   10 1
    16    8    9 ar
    17    8   47 1
    18    9   48 1
    19   11   12 am
    20   11   49 1
    21   12   13 2
    22   12   14 1
    23   14   19 ar
    24   14   15 ar
    25   15   16 ar
    26   15   50 1
    27   16   17 ar
    28   16   26 1
    29   17   18 ar
    30   17   51 1
    31   18   19 ar
    32   18   20 1
    33   19   52 1
    34   20   21 1
    35   20   22 1
    36   21   53 1
    37   21   54 1
    38   21   55 1
    39   22   23 2
    40   22   24 2
    41   22   25 1
    42   25   56 1
    43   25   57 1
    44   25   58 1
    45   26   27 1
    46   26   31 2
    47   27   28 2
    48   28   32 1
    49   28   29 1
    50   29   31 1
    51   29   30 1
    52   32   33 1
    53   32   34 1
    54   32   41 1
    55   33   59 1
    56   33   60 1
    57   33   61 1
    58   34   35 1
    59   34   62 1
    60   34   63 1
    61   35   40 ar
    62   35   36 ar
    63   36   37 ar
    64   36   64 1
    65   37   38 ar
    66   37   65 1
    67   38   39 ar
    68   38   66 1
    69   39   40 ar
    70   39   67 1
    71   40   68 1
    72   41   69 1
    73   41   70 1
    74   41   71 1
@<TRIPOS>MOLECULE
CHEMBL1092146
   72    75     0     0     0
SMALL
USER_CHARGES

@<TRIPOS>ATOM
      1 C1          0.0614    1.3388   -0.0284 C.3       1 <0>        -0.1606
      2 C2          0.0266   -0.1906   -0.0511 C.3       1 <0>         0.1848
      3 H1          0.5503   -0.5790    0.8224 H         1 <0>         0.1052
      4 C3          0.6997   -0.6899   -1.3035 C.ar      1 <0>        -0.1058
      5 C4          0.0149   -0.6854   -2.5045 C.ar      1 <0>        -0.0888
      6 C5          0.6314   -1.1426   -3.6537 C.ar      1 <0>        -0.1507
      7 C6          1.9353   -1.6053   -3.6021 C.ar      1 <0>         0.1038
      8 C7          2.6201   -1.6094   -2.3987 C.ar      1 <0>        -0.1449
      9 C8          2.0034   -1.1468   -1.2517 C.ar      1 <0>        -0.0726
     10 F1          2.5388   -2.0530   -4.7249 F         1 <0>        -0.1358
     11 N1         -1.3651   -0.6478   -0.0293 N.am      1 <0>        -0.7193
     12 C9         -2.0129   -0.7792    1.1453 C.2       1 <0>         0.5617
     13 O1         -1.4425   -0.5184    2.1865 O.2       1 <0>        -0.5184
     14 C10        -3.4177   -1.2407    1.1673 C.ar      1 <0>        -0.1033
     15 C11        -4.0707   -1.5454   -0.0255 C.ar      1 <0>        -0.0680
     16 C12        -5.3944   -1.9804   -0.0003 C.ar      1 <0>        -0.0253
     17 C13        -6.0619   -2.1095    1.2187 C.ar      1 <0>        -0.0654
     18 C14        -5.4091   -1.8054    2.4042 C.ar      1 <0>         0.1644
     19 C15        -4.0891   -1.3770    2.3830 C.ar      1 <0>        -0.0585
     20 N2         -6.0803   -1.9353    3.6229 N.pl3     1 <0>        -0.9562
     21 C16        -7.3160   -1.1855    3.8621 C.3       1 <0>         0.0849
     22 S1         -5.4791   -2.9368    4.7967 S.o2      1 <0>         2.5962
     23 O2         -6.6258   -3.4239    5.4800 O.2       1 <0>        -0.9376
     24 O3         -4.6149   -3.8281    4.1052 O.2       1 <0>        -0.9377
     25 C17        -4.5161   -1.8524    5.8863 C.3       1 <0>        -0.6714
     26 C18        -6.0910   -2.3042   -1.2632 C.2       1 <0>         0.0827
     27 C19        -7.3766   -2.7308   -1.3784 C.2       1 <0>        -0.1862
     28 C20        -7.6212   -2.9159   -2.7540 C.2       1 <0>        -0.1712
     29 C21        -6.4847   -2.5965   -3.4033 C.2       1 <0>        -0.0687
     30 O4         -5.5640   -2.2223   -2.5000 O.3       1 <0>        -0.1462
     31 C22        -6.2821   -2.6453   -4.8959 C.3       1 <0>         0.1669
     32 C23        -5.7690   -4.0301   -5.2959 C.3       1 <0>        -0.1782
     33 C24        -5.2594   -1.5842   -5.3067 C.3       1 <0>        -0.0923
     34 C25        -5.1477   -1.5492   -6.8091 C.ar      1 <0>        -0.1321
     35 C26        -4.2302   -2.3583   -7.4530 C.ar      1 <0>        -0.1024
     36 C27        -4.1278   -2.3263   -8.8312 C.ar      1 <0>        -0.1047
     37 C28        -4.9431   -1.4855   -9.5655 C.ar      1 <0>        -0.1006
     38 C29        -5.8611   -0.6770   -8.9217 C.ar      1 <0>        -0.1062
     39 C30        -5.9665   -0.7122   -7.5438 C.ar      1 <0>        -0.1429
     40 N3         -7.5594   -2.3822   -5.5722 N.4       1 <0>        -0.6299
     41 H2          1.0968    1.6789   -0.0447 H         1 <0>         0.0740
     42 H3         -0.4624    1.7271   -0.9019 H         1 <0>         0.0598
     43 H4         -0.4255    1.6999    0.8774 H         1 <0>         0.0692
     44 H5         -1.0023   -0.3247   -2.5445 H         1 <0>         0.1267
     45 H6          0.0961   -1.1393   -4.5918 H         1 <0>         0.1355
     46 H7          3.6372   -1.9705   -2.3572 H         1 <0>         0.1420
     47 H8          2.5389   -1.1458   -0.3139 H         1 <0>         0.1395
     48 H9         -1.8204   -0.8559   -0.8601 H         1 <0>         0.3972
     49 H10        -3.5521   -1.4443   -0.9675 H         1 <0>         0.1358
     50 H11        -7.0878   -2.4462    1.2389 H         1 <0>         0.1445
     51 H12        -3.5823   -1.1453    3.3081 H         1 <0>         0.1456
     52 H13        -8.1701   -1.7793    3.5366 H         1 <0>         0.0706
     53 H14        -7.4088   -0.9682    4.9262 H         1 <0>         0.0842
     54 H15        -7.2883   -0.2511    3.3015 H         1 <0>         0.0812
     55 H16        -5.1685   -1.0863    6.3053 H         1 <0>         0.1335
     56 H17        -4.0822   -2.4417    6.6942 H         1 <0>         0.1384
     57 H18        -3.7190   -1.3777    5.3143 H         1 <0>         0.1320
     58 H19        -8.0753   -2.8962   -0.5717 H         1 <0>         0.1661
     59 H20        -8.5447   -3.2508   -3.2026 H         1 <0>         0.1579
     60 H21        -6.4977   -4.7861   -5.0032 H         1 <0>         0.0898
     61 H22        -5.6225   -4.0654   -6.3754 H         1 <0>         0.0964
     62 H23        -4.8213   -4.2253   -4.7940 H         1 <0>         0.1119
     63 H24        -5.5823   -0.6085   -4.9436 H         1 <0>         0.1036
     64 H25        -4.2886   -1.8291   -4.8758 H         1 <0>         0.1245
     65 H26        -3.5933   -3.0152   -6.8793 H         1 <0>         0.1316
     66 H27        -3.4105   -2.9579   -9.3342 H         1 <0>         0.1341
     67 H28        -4.8625   -1.4599  -10.6422 H         1 <0>         0.1334
     68 H29        -6.4978   -0.0199   -9.4954 H         1 <0>         0.1332
     69 H30        -6.6864   -0.0833   -7.0411 H         1 <0>         0.1240
     70 H31        -7.8977   -1.4689   -5.3084 H         1 <0>         0.4371
     71 H32        -7.4237   -2.4148   -6.5715 H         1 <0>         0.4423
     72 H33        -8.2338   -3.0820   -5.3013 H         1 <0>         0.4359
@<TRIPOS>BOND
     1    1    2 1
     2    1   41 1
     3    1   42 1
     4    1   43 1
     5    2    3 1
     6    2    4 1
     7    2   11 1
     8    4    9 ar
     9    4    5 ar
    10    5    6 ar
    11    5   44 1
    12    6    7 ar
    13    6   45 1
    14    7    8 ar
    15    7   10 1
    16    8    9 ar
    17    8   46 1
    18    9   47 1
    19   11   12 am
    20   11   48 1
    21   12   13 2
    22   12   14 1
    23   14   19 ar
    24   14   15 ar
    25   15   16 ar
    26   15   49 1
    27   16   17 ar
    28   16   26 1
    29   17   18 ar
    30   17   50 1
    31   18   19 ar
    32   18   20 1
    33   19   51 1
    34   20   21 1
    35   20   22 1
    36   21   52 1
    37   21   53 1
    38   21   54 1
    39   22   23 2
    40   22   24 2
    41   22   25 1
    42   25   55 1
    43   25   56 1
    44   25   57 1
    45   26   30 1
    46   26   27 2
    47   27   28 1
    48   27   58 1
    49   28   29 2
    50   28   59 1
    51   29   30 1
    52   29   31 1
    53   31   32 1
    54   31   33 1
    55   31   40 1
    56   32   60 1
    57   32   61 1
    58   32   62 1
    59   33   34 1
    60   33   63 1
    61   33   64 1
    62   34   39 ar
    63   34   35 ar
    64   35   36 ar
    65   35   65 1
    66   36   37 ar
    67   36   66 1
    68   37   38 ar
    69   37   67 1
    70   38   39 ar
    71   38   68 1
    72   39   69 1
    73   40   70 1
    74   40   71 1
    75   40   72 1
@<TRIPOS>MOLECULE
CHEMBL1092146__1
   72    75     0     0     0
SMALL
USER_CHARGES

@<TRIPOS>ATOM
      1 C1          0.0614    1.3388   -0.0284 C.3       1 <0>        -0.1607
      2 C2          0.0266   -0.1906   -0.0511 C.3       1 <0>         0.1849
      3 H1          0.5503   -0.5790    0.8224 H         1 <0>         0.1052
      4 C3          0.6997   -0.6899   -1.3035 C.ar      1 <0>        -0.1057
      5 C4          0.0149   -0.6854   -2.5045 C.ar      1 <0>        -0.0888
      6 C5          0.6314   -1.1426   -3.6537 C.ar      1 <0>        -0.1506
      7 C6          1.9353   -1.6053   -3.6021 C.ar      1 <0>         0.1036
      8 C7          2.6201   -1.6094   -2.3987 C.ar      1 <0>        -0.1450
      9 C8          2.0034   -1.1468   -1.2517 C.ar      1 <0>        -0.0726
     10 F1          2.5388   -2.0530   -4.7249 F         1 <0>        -0.1359
     11 N1         -1.3651   -0.6478   -0.0293 N.am      1 <0>        -0.7193
     12 C9         -2.0129   -0.7792    1.1453 C.2       1 <0>         0.5617
     13 O1         -1.4425   -0.5184    2.1865 O.2       1 <0>        -0.5184
     14 C10        -3.4177   -1.2407    1.1673 C.ar      1 <0>        -0.1033
     15 C11        -4.0707   -1.5454   -0.0255 C.ar      1 <0>        -0.0680
     16 C12        -5.3944   -1.9804   -0.0003 C.ar      1 <0>        -0.0253
     17 C13        -6.0619   -2.1095    1.2187 C.ar      1 <0>        -0.0654
     18 C14        -5.4091   -1.8054    2.4042 C.ar      1 <0>         0.1644
     19 C15        -4.0891   -1.3770    2.3830 C.ar      1 <0>        -0.0584
     20 N2         -6.0803   -1.9353    3.6229 N.pl3     1 <0>        -0.9562
     21 C16        -7.3160   -1.1855    3.8621 C.3       1 <0>         0.0847
     22 S1         -5.4791   -2.9368    4.7967 S.o2      1 <0>         2.5965
     23 O2         -6.6258   -3.4239    5.4800 O.2       1 <0>        -0.9377
     24 O3         -4.6149   -3.8281    4.1052 O.2       1 <0>        -0.9383
     25 C17        -4.5161   -1.8524    5.8863 C.3       1 <0>        -0.6714
     26 C18        -6.0910   -2.3042   -1.2632 C.2       1 <0>         0.0827
     27 C19        -7.3766   -2.7308   -1.3784 C.2       1 <0>        -0.1862
     28 C20        -7.6212   -2.9159   -2.7540 C.2       1 <0>        -0.1711
     29 C21        -6.4847   -2.5965   -3.4033 C.2       1 <0>        -0.0688
     30 O4         -5.5640   -2.2223   -2.5000 O.3       1 <0>        -0.1463
     31 C22        -6.2821   -2.6453   -4.8959 C.3       1 <0>         0.1667
     32 C23        -6.6582   -1.2936   -5.5060 C.3       1 <0>        -0.1774
     33 C24        -4.8148   -2.9524   -5.2016 C.3       1 <0>        -0.0929
     34 C25        -4.6122   -3.0012   -6.6942 C.ar      1 <0>        -0.1289
     35 C26        -4.7691   -4.1944   -7.3743 C.ar      1 <0>        -0.1424
     36 C27        -4.5833   -4.2392   -8.7434 C.ar      1 <0>        -0.1059
     37 C28        -4.2411   -3.0906   -9.4324 C.ar      1 <0>        -0.1011
     38 C29        -4.0851   -1.8973   -8.7523 C.ar      1 <0>        -0.1049
     39 C30        -4.2751   -1.8516   -7.3839 C.ar      1 <0>        -0.1023
     40 N3         -7.1325   -3.6959   -5.4713 N.4       1 <0>        -0.6303
     41 H2          1.0968    1.6789   -0.0447 H         1 <0>         0.0740
     42 H3         -0.4624    1.7271   -0.9019 H         1 <0>         0.0601
     43 H4         -0.4255    1.6999    0.8774 H         1 <0>         0.0692
     44 H5         -1.0023   -0.3247   -2.5445 H         1 <0>         0.1269
     45 H6          0.0961   -1.1393   -4.5918 H         1 <0>         0.1354
     46 H7          3.6372   -1.9705   -2.3572 H         1 <0>         0.1419
     47 H8          2.5389   -1.1458   -0.3139 H         1 <0>         0.1394
     48 H9         -1.8204   -0.8559   -0.8601 H         1 <0>         0.3972
     49 H10        -3.5521   -1.4443   -0.9675 H         1 <0>         0.1357
     50 H11        -7.0878   -2.4462    1.2389 H         1 <0>         0.1445
     51 H12        -3.5823   -1.1453    3.3081 H         1 <0>         0.1456
     52 H13        -8.1701   -1.7793    3.5366 H         1 <0>         0.0707
     53 H14        -7.4088   -0.9682    4.9262 H         1 <0>         0.0842
     54 H15        -7.2883   -0.2511    3.3015 H         1 <0>         0.0815
     55 H16        -5.1685   -1.0863    6.3053 H         1 <0>         0.1336
     56 H17        -4.0822   -2.4417    6.6942 H         1 <0>         0.1384
     57 H18        -3.7190   -1.3777    5.3143 H         1 <0>         0.1321
     58 H19        -8.0753   -2.8962   -0.5717 H         1 <0>         0.1661
     59 H20        -8.5447   -3.2508   -3.2026 H         1 <0>         0.1580
     60 H21        -6.0272   -0.5141   -5.0790 H         1 <0>         0.1112
     61 H22        -6.5117   -1.3289   -6.5856 H         1 <0>         0.0968
     62 H23        -7.7035   -1.0748   -5.2882 H         1 <0>         0.0892
     63 H24        -4.1838   -2.1729   -4.7746 H         1 <0>         0.1245
     64 H25        -4.5469   -3.9154   -4.7669 H         1 <0>         0.1036
     65 H26        -5.0364   -5.0917   -6.8360 H         1 <0>         0.1233
     66 H27        -4.7051   -5.1715   -9.2747 H         1 <0>         0.1329
     67 H28        -4.0952   -3.1258  -10.5019 H         1 <0>         0.1331
     68 H29        -3.8175   -1.0000   -9.2906 H         1 <0>         0.1335
     69 H30        -4.1570   -0.9185   -6.8531 H         1 <0>         0.1307
     70 H31        -8.1002   -3.4934   -5.2697 H         1 <0>         0.4360
     71 H32        -6.9969   -3.7285   -6.4706 H         1 <0>         0.4421
     72 H33        -6.8845   -4.5873   -5.0689 H         1 <0>         0.4378
@<TRIPOS>BOND
     1    1    2 1
     2    1   41 1
     3    1   42 1
     4    1   43 1
     5    2    3 1
     6    2    4 1
     7    2   11 1
     8    4    9 ar
     9    4    5 ar
    10    5    6 ar
    11    5   44 1
    12    6    7 ar
    13    6   45 1
    14    7    8 ar
    15    7   10 1
    16    8    9 ar
    17    8   46 1
    18    9   47 1
    19   11   12 am
    20   11   48 1
    21   12   13 2
    22   12   14 1
    23   14   19 ar
    24   14   15 ar
    25   15   16 ar
    26   15   49 1
    27   16   17 ar
    28   16   26 1
    29   17   18 ar
    30   17   50 1
    31   18   19 ar
    32   18   20 1
    33   19   51 1
    34   20   21 1
    35   20   22 1
    36   21   52 1
    37   21   53 1
    38   21   54 1
    39   22   23 2
    40   22   24 2
    41   22   25 1
    42   25   55 1
    43   25   56 1
    44   25   57 1
    45   26   30 1
    46   26   27 2
    47   27   28 1
    48   27   58 1
    49   28   29 2
    50   28   59 1
    51   29   30 1
    52   29   31 1
    53   31   32 1
    54   31   33 1
    55   31   40 1
    56   32   60 1
    57   32   61 1
    58   32   62 1
    59   33   34 1
    60   33   63 1
    61   33   64 1
    62   34   39 ar
    63   34   35 ar
    64   35   36 ar
    65   35   65 1
    66   36   37 ar
    67   36   66 1
    68   37   38 ar
    69   37   67 1
    70   38   39 ar
    71   38   68 1
    72   39   69 1
    73   40   70 1
    74   40   71 1
    75   40   72 1
@<TRIPOS>MOLECULE
CHEMBL213904
   53    56     0     0     0
SMALL
USER_CHARGES

@<TRIPOS>ATOM
      1 C1          0.3492    0.7532    2.4441 C.ar      1 <0>        -0.1125
      2 C2          1.5410    1.4738    2.4709 C.ar      1 <0>        -0.1113
      3 C3          2.6606    0.9989    1.8563 C.ar      1 <0>        -0.1185
      4 C4          2.6162   -0.2316    1.1872 C.ar      1 <0>        -0.0093
      5 C5          1.4058   -0.9660    1.1590 C.ar      1 <0>        -0.0614
      6 C6          0.2701   -0.4455    1.8035 C.ar      1 <0>        -0.1091
      7 C7          1.3600   -2.2006    0.4887 C.ar      1 <0>        -0.0669
      8 C8          2.4739   -2.6854   -0.1291 C.ar      1 <0>        -0.1318
      9 C9          3.6703   -1.9798   -0.1120 C.ar      1 <0>        -0.0652
     10 C10         3.7610   -0.7571    0.5372 C.ar      1 <0>        -0.1310
     11 C11         5.0335   -0.0128    0.5508 C.2       1 <0>         0.5649
     12 O1          5.0804    1.1028    1.0329 O.2       1 <0>        -0.5096
     13 N1          6.1449   -0.5687    0.0291 N.am      1 <0>        -0.6538
     14 C12         7.3707    0.1037    0.1147 C.ar      1 <0>         0.1471
     15 C13         7.3994    1.4857    0.2273 C.ar      1 <0>        -0.1026
     16 C14         8.6108    2.1474    0.3123 C.ar      1 <0>        -0.0742
     17 C15         9.7963    1.4344    0.2848 C.ar      1 <0>        -0.1019
     18 C16         9.7764    0.0569    0.1723 C.ar      1 <0>        -0.1000
     19 C17         8.5657   -0.6152    0.0928 C.ar      1 <0>         0.1574
     20 N2          8.5434   -2.0103   -0.0149 N.pl3     1 <0>        -0.6790
     21 C18         8.5725   -2.6664   -1.3309 C.3       1 <0>         0.1462
     22 C19         9.6858   -3.7194   -1.3253 C.3       1 <0>         0.0411
     23 N3          9.4938   -4.6244   -0.1842 N.3       1 <0>        -0.5247
     24 C20         9.6067   -3.9047    1.0914 C.3       1 <0>         0.0370
     25 C21         8.4963   -2.8595    1.1851 C.3       1 <0>         0.1515
     26 C22        10.4373   -5.7489   -0.2396 C.3       1 <0>         0.0542
     27 C23        10.0500   -6.7918    0.8108 C.3       1 <0>         0.0793
     28 O2          8.7766   -7.3501    0.4807 O.3       1 <0>        -0.5591
     29 Br1         8.6472    4.0318    0.4657 Br        1 <0>        -0.0440
     30 H1         -0.5234    1.1490    2.9423 H         1 <0>         0.1249
     31 H2          1.5781    2.4224    2.9858 H         1 <0>         0.1256
     32 H3          3.5779    1.5684    1.8844 H         1 <0>         0.1683
     33 H4         -0.6605   -0.9934    1.7903 H         1 <0>         0.1298
     34 H5          0.4404   -2.7663    0.4634 H         1 <0>         0.1338
     35 H6          2.4257   -3.6352   -0.6408 H         1 <0>         0.1333
     36 H7          4.5384   -2.3871   -0.6089 H         1 <0>         0.1257
     37 H8          6.0960   -1.4344   -0.4058 H         1 <0>         0.4142
     38 H9          6.4758    2.0451    0.2484 H         1 <0>         0.1661
     39 H10        10.7398    1.9557    0.3510 H         1 <0>         0.1339
     40 H11        10.7036   -0.4965    0.1504 H         1 <0>         0.1326
     41 H12         7.6135   -3.1485   -1.5210 H         1 <0>         0.0593
     42 H13         8.7730   -1.9257   -2.1050 H         1 <0>         0.0747
     43 H14         9.6504   -4.2910   -2.2528 H         1 <0>         0.0818
     44 H15        10.6534   -3.2252   -1.2388 H         1 <0>         0.0359
     45 H16         9.5140   -4.6107    1.9167 H         1 <0>         0.0818
     46 H17        10.5754   -3.4080    1.1443 H         1 <0>         0.0349
     47 H18         8.6464   -2.2463    2.0737 H         1 <0>         0.0721
     48 H19         7.5299   -3.3604    1.2415 H         1 <0>         0.0592
     49 H20        10.4050   -6.2019   -1.2305 H         1 <0>         0.0834
     50 H21        11.4457   -5.3874   -0.0380 H         1 <0>         0.0469
     51 H22        10.7994   -7.5830    0.8308 H         1 <0>         0.0482
     52 H23         9.9958   -6.3178    1.7908 H         1 <0>         0.0453
     53 H24         8.4672   -8.0205    1.1052 H         1 <0>         0.3755
@<TRIPOS>BOND
     1    1    6 ar
     2    1    2 ar
     3    1   30 1
     4    2    3 ar
     5    2   31 1
     6    3    4 ar
     7    3   32 1
     8    4   10 ar
     9    4    5 ar
    10    5    6 ar
    11    5    7 ar
    12    6   33 1
    13    7    8 ar
    14    7   34 1
    15    8    9 ar
    16    8   35 1
    17    9   10 ar
    18    9   36 1
    19   10   11 1
    20   11   12 2
    21   11   13 am
    22   13   14 1
    23   13   37 1
    24   14   19 ar
    25   14   15 ar
    26   15   16 ar
    27   15   38 1
    28   16   17 ar
    29   16   29 1
    30   17   18 ar
    31   17   39 1
    32   18   19 ar
    33   18   40 1
    34   19   20 1
    35   20   25 1
    36   20   21 1
    37   21   22 1
    38   21   41 1
    39   21   42 1
    40   22   23 1
    41   22   43 1
    42   22   44 1
    43   23   24 1
    44   23   26 1
    45   24   25 1
    46   24   45 1
    47   24   46 1
    48   25   47 1
    49   25   48 1
    50   26   27 1
    51   26   49 1
    52   26   50 1
    53   27   28 1
    54   27   51 1
    55   27   52 1
    56   28   53 1
@<TRIPOS>MOLECULE
CHEMBL213904__1
   54    57     0     0     0
SMALL
USER_CHARGES

@<TRIPOS>ATOM
      1 C1          0.2408    0.8927   -2.2170 C.ar      1 <0>        -0.1088
      2 C2          1.4299    1.6175   -2.2495 C.ar      1 <0>        -0.1032
      3 C3          2.5776    1.1043   -1.7241 C.ar      1 <0>        -0.1241
      4 C4          2.5650   -0.1702   -1.1415 C.ar      1 <0>        -0.0088
      5 C5          1.3573   -0.9086   -1.1069 C.ar      1 <0>        -0.0612
      6 C6          0.1922   -0.3481   -1.6590 C.ar      1 <0>        -0.1069
      7 C7          1.3432   -2.1868   -0.5225 C.ar      1 <0>        -0.0580
      8 C8          2.4852   -2.7098    0.0065 C.ar      1 <0>        -0.1393
      9 C9          3.6793   -2.0006   -0.0175 C.ar      1 <0>        -0.0680
     10 C10         3.7394   -0.7359   -0.5846 C.ar      1 <0>        -0.1349
     11 C11         5.0102    0.0112   -0.6077 C.2       1 <0>         0.5653
     12 O1          5.0814    1.0717   -1.1988 O.2       1 <0>        -0.4997
     13 N1          6.0929   -0.4812    0.0260 N.am      1 <0>        -0.6659
     14 C12         7.2647    0.2819    0.1063 C.ar      1 <0>         0.1617
     15 C13         7.1894    1.6626    0.2138 C.ar      1 <0>        -0.0877
     16 C14         8.3477    2.4140    0.2933 C.ar      1 <0>        -0.0620
     17 C15         9.5835    1.7923    0.2655 C.ar      1 <0>        -0.0984
     18 C16         9.6673    0.4167    0.1581 C.ar      1 <0>        -0.0933
     19 C17         8.5105   -0.3449    0.0840 C.ar      1 <0>         0.1302
     20 N2          8.5931   -1.7382   -0.0186 N.pl3     1 <0>        -0.6744
     21 C18         8.6689   -2.3968   -1.3318 C.3       1 <0>         0.1190
     22 C19         9.8471   -3.3762   -1.3167 C.3       1 <0>        -0.0225
     23 N3          9.7010   -4.2987   -0.1837 N.4       1 <0>        -0.3794
     24 C20         9.7883   -3.5562    1.0801 C.3       1 <0>        -0.0272
     25 C21         8.6128   -2.5853    1.1840 C.3       1 <0>         0.1150
     26 C22        10.7698   -5.3052   -0.2330 C.3       1 <0>        -0.0053
     27 C23        10.5479   -6.3395    0.8724 C.3       1 <0>         0.0449
     28 O2          9.3396   -7.0583    0.6166 O.3       1 <0>        -0.5803
     29 Br1         8.2424    4.2964    0.4399 Br        1 <0>        -0.0248
     30 H1         -0.6565    1.3231   -2.6365 H         1 <0>         0.1289
     31 H2          1.4424    2.6000   -2.6978 H         1 <0>         0.1286
     32 H3          3.4927    1.6769   -1.7567 H         1 <0>         0.1667
     33 H4         -0.7364   -0.8992   -1.6409 H         1 <0>         0.1329
     34 H5          0.4256   -2.7555   -0.4923 H         1 <0>         0.1362
     35 H6          2.4612   -3.6930    0.4527 H         1 <0>         0.1323
     36 H7          4.5697   -2.4380    0.4094 H         1 <0>         0.1189
     37 H8          6.0607   -1.3640    0.4266 H         1 <0>         0.4086
     38 H9          6.2263    2.1509    0.2351 H         1 <0>         0.1508
     39 H10        10.4852    2.3834    0.3276 H         1 <0>         0.1412
     40 H11        10.6335   -0.0653    0.1359 H         1 <0>         0.1345
     41 H12         7.7434   -2.9399   -1.5231 H         1 <0>         0.0790
     42 H13         8.8248   -1.6481   -2.1085 H         1 <0>         0.1185
     43 H14         9.8603   -3.9432   -2.2476 H         1 <0>         0.1378
     44 H15        10.7798   -2.8213   -1.2157 H         1 <0>         0.1320
     45 H16         9.7582   -4.2558    1.9155 H         1 <0>         0.1365
     46 H17        10.7228   -2.9959    1.1086 H         1 <0>         0.1324
     47 H18         8.7318   -1.9613    2.0697 H         1 <0>         0.1193
     48 H19         7.6816   -3.1479    1.2510 H         1 <0>         0.0775
     49 H20        10.7567   -5.8019   -1.2032 H         1 <0>         0.1384
     50 H21        11.7342   -4.8186   -0.0870 H         1 <0>         0.1415
     51 H22        11.3869   -7.0349    0.8931 H         1 <0>         0.0953
     52 H23        10.4724   -5.8325    1.8344 H         1 <0>         0.0716
     53 H24         9.1352   -7.7324    1.2791 H         1 <0>         0.4095
     54 H25         8.8053   -4.7598   -0.2403 H         1 <0>         0.4290
@<TRIPOS>BOND
     1    1    6 ar
     2    1    2 ar
     3    1   30 1
     4    2    3 ar
     5    2   31 1
     6    3    4 ar
     7    3   32 1
     8    4   10 ar
     9    4    5 ar
    10    5    6 ar
    11    5    7 ar
    12    6   33 1
    13    7    8 ar
    14    7   34 1
    15    8    9 ar
    16    8   35 1
    17    9   10 ar
    18    9   36 1
    19   10   11 1
    20   11   12 2
    21   11   13 am
    22   13   14 1
    23   13   37 1
    24   14   19 ar
    25   14   15 ar
    26   15   16 ar
    27   15   38 1
    28   16   17 ar
    29   16   29 1
    30   17   18 ar
    31   17   39 1
    32   18   19 ar
    33   18   40 1
    34   19   20 1
    35   20   25 1
    36   20   21 1
    37   21   22 1
    38   21   41 1
    39   21   42 1
    40   22   23 1
    41   22   43 1
    42   22   44 1
    43   23   24 1
    44   23   26 1
    45   23   54 1
    46   24   25 1
    47   24   45 1
    48   24   46 1
    49   25   47 1
    50   25   48 1
    51   26   27 1
    52   26   49 1
    53   26   50 1
    54   27   28 1
    55   27   51 1
    56   27   52 1
    57   28   53 1
@<TRIPOS>MOLECULE
CHEMBL568035
   43    47     0     0     0
SMALL
USER_CHARGES

@<TRIPOS>ATOM
      1 C1         -0.0100    1.4276    0.0765 C.ar      1 <0>        -0.1137
      2 C2          1.1809    2.1293    0.0696 C.ar      1 <0>        -0.1038
      3 C3          2.3852    1.4538    0.0269 C.ar      1 <0>        -0.1260
      4 C4          2.4089    0.0637   -0.0009 C.ar      1 <0>         0.1237
      5 C5          1.2096   -0.6399    0.0338 C.ar      1 <0>         0.1469
      6 C6          0.0028    0.0454    0.0568 C.ar      1 <0>        -0.1106
      7 N1          1.2019   -2.0396    0.0918 N.pl3     1 <0>        -0.7248
      8 C7          1.7927   -2.6778    1.1764 C.ar      1 <0>         0.1940
      9 C8          1.0316   -3.4997    1.9951 C.ar      1 <0>        -0.0912
     10 C9          1.6124   -4.1032    3.1069 C.ar      1 <0>        -0.0701
     11 C10         2.9594   -3.8787    3.3991 C.ar      1 <0>        -0.0781
     12 C11         3.7223   -3.0779    2.5808 C.ar      1 <0>        -0.0606
     13 C12         3.1543   -2.4845    1.4482 C.ar      1 <0>        -0.1324
     14 C13         3.9972   -1.6980    0.5380 C.2       1 <0>         0.5720
     15 O1          5.1273   -2.1012    0.3431 O.2       1 <0>        -0.5303
     16 N2          3.6366   -0.5902   -0.0886 N.am      1 <0>        -0.6505
     17 C14         0.8009   -4.9841    3.9810 C.2       1 <0>         0.5490
     18 O2         -0.3744   -5.1796    3.7262 O.2       1 <0>        -0.5776
     19 N3          1.3587   -5.5636    5.0485 N.2       1 <0>        -0.6571
     20 C15         0.6092   -6.2677    5.8896 C.2       1 <0>         0.6584
     21 N4         -0.7056   -6.5664    5.7123 N.pl3     1 <0>        -0.6071
     22 H1         -1.2511   -6.3026    4.9548 H         1 <0>         0.4527
     23 C16        -1.1339   -7.3155    6.8032 C.ar      1 <0>         0.1097
     24 C17        -2.3552   -7.8794    7.1431 C.ar      1 <0>        -0.1384
     25 C18        -2.4817   -8.5878    8.3238 C.ar      1 <0>         0.1215
     26 C19        -1.3927   -8.7361    9.1690 C.ar      1 <0>        -0.1363
     27 C20        -0.1740   -8.1778    8.8384 C.ar      1 <0>        -0.0645
     28 C21        -0.0373   -7.4660    7.6553 C.ar      1 <0>         0.0731
     29 N5          1.0365   -6.8089    7.0614 N.pl3     1 <0>        -0.5862
     30 F1         -3.6707   -9.1369    8.6552 F         1 <0>        -0.1270
     31 H2         -0.9499    1.9589    0.1018 H         1 <0>         0.1312
     32 H3          1.1698    3.2089    0.0973 H         1 <0>         0.1320
     33 H4          3.3122    2.0077    0.0146 H         1 <0>         0.1322
     34 H5         -0.9281   -0.5023    0.0597 H         1 <0>         0.1326
     35 H6          0.7887   -2.5576   -0.6166 H         1 <0>         0.4131
     36 H7         -0.0108   -3.6707    1.7701 H         1 <0>         0.1428
     37 H8          3.4040   -4.3352    4.2711 H         1 <0>         0.1499
     38 H9          4.7629   -2.9067    2.8135 H         1 <0>         0.1408
     39 H10         4.2988   -0.1894   -0.6731 H         1 <0>         0.4101
     40 H11         1.9346   -6.7460    7.4225 H         1 <0>         0.4491
     41 H12        -3.2055   -7.7649    6.4870 H         1 <0>         0.1489
     42 H13        -1.4983   -9.2904   10.0899 H         1 <0>         0.1531
     43 H14         0.6719   -8.2955    9.4994 H         1 <0>         0.1493
@<TRIPOS>BOND
     1    1    6 ar
     2    1    2 ar
     3    1   31 1
     4    2    3 ar
     5    2   32 1
     6    3    4 ar
     7    3   33 1
     8    4   16 1
     9    4    5 ar
    10    5    6 ar
    11    5    7 1
    12    6   34 1
    13    7    8 1
    14    7   35 1
    15    8   13 ar
    16    8    9 ar
    17    9   10 ar
    18    9   36 1
    19   10   11 ar
    20   10   17 1
    21   11   12 ar
    22   11   37 1
    23   12   13 ar
    24   12   38 1
    25   13   14 1
    26   14   15 2
    27   14   16 am
    28   16   39 1
    29   17   18 2
    30   17   19 1
    31   19   20 2
    32   20   29 1
    33   20   21 1
    34   21   23 1
    35   21   22 1
    36   23   24 ar
    37   23   28 ar
    38   24   25 ar
    39   24   41 1
    40   25   26 ar
    41   25   30 1
    42   26   27 ar
    43   26   42 1
    44   27   28 ar
    45   27   43 1
    46   28   29 1
    47   29   40 1
@<TRIPOS>MOLECULE
CHEMBL568035__1
   43    47     0     0     0
SMALL
USER_CHARGES

@<TRIPOS>ATOM
      1 C1         -0.0142    1.4199    0.0668 C.ar      1 <0>        -0.1137
      2 C2          1.1756    2.1233    0.0605 C.ar      1 <0>        -0.1038
      3 C3          2.3810    1.4495    0.0200 C.ar      1 <0>        -0.1260
      4 C4          2.4068    0.0594   -0.0062 C.ar      1 <0>         0.1236
      5 C5          1.2084   -0.6459    0.0280 C.ar      1 <0>         0.1470
      6 C6          0.0006    0.0376    0.0488 C.ar      1 <0>        -0.1106
      7 N1          1.2027   -2.0456    0.0875 N.pl3     1 <0>        -0.7247
      8 C7          1.7932   -2.6817    1.1736 C.ar      1 <0>         0.1940
      9 C8          1.0322   -3.5037    1.9923 C.ar      1 <0>        -0.0911
     10 C9          1.6126   -4.1051    3.1055 C.ar      1 <0>        -0.0701
     11 C10         2.9590   -3.8783    3.3991 C.ar      1 <0>        -0.0781
     12 C11         3.7216   -3.0773    2.5807 C.ar      1 <0>        -0.0606
     13 C12         3.1541   -2.4860    1.4468 C.ar      1 <0>        -0.1324
     14 C13         3.9969   -1.6994    0.5366 C.2       1 <0>         0.5720
     15 O1          5.1278   -2.1012    0.3435 O.2       1 <0>        -0.5303
     16 N2          3.6355   -0.5929   -0.0917 N.am      1 <0>        -0.6505
     17 C14         0.8013   -4.9861    3.9797 C.2       1 <0>         0.5493
     18 O2         -0.3734   -5.1836    3.7237 O.2       1 <0>        -0.5777
     19 N3          1.3587   -5.5636    5.0485 N.2       1 <0>        -0.6575
     20 C15         0.6092   -6.2677    5.8896 C.2       1 <0>         0.6580
     21 N4          1.0351   -6.8040    7.0645 N.pl3     1 <0>        -0.5869
     22 H1          1.9322   -6.7375    7.4274 H         1 <0>         0.4492
     23 C16        -0.0365   -7.4640    7.6567 C.ar      1 <0>         0.1134
     24 C17        -0.1727   -8.1754    8.8402 C.ar      1 <0>        -0.1359
     25 C18        -1.3938   -8.7329    9.1717 C.ar      1 <0>         0.1194
     26 C19        -2.4820   -8.5839    8.3257 C.ar      1 <0>        -0.1340
     27 C20        -2.3549   -7.8779    7.1460 C.ar      1 <0>        -0.0668
     28 C21        -1.1338   -7.3141    6.8054 C.ar      1 <0>         0.0696
     29 N5         -0.7068   -6.5613    5.7152 N.pl3     1 <0>        -0.6058
     30 F1         -1.5268   -9.4257   10.3239 F         1 <0>        -0.1269
     31 H2         -0.9550    1.9498    0.0904 H         1 <0>         0.1312
     32 H3          1.1630    3.2029    0.0870 H         1 <0>         0.1320
     33 H4          3.3072    2.0047    0.0082 H         1 <0>         0.1322
     34 H5         -0.9295   -0.5114    0.0512 H         1 <0>         0.1326
     35 H6          0.7911   -2.5650   -0.6208 H         1 <0>         0.4131
     36 H7         -0.0096   -3.6765    1.7663 H         1 <0>         0.1428
     37 H8          3.4031   -4.3332    4.2721 H         1 <0>         0.1499
     38 H9          4.7617   -2.9044    2.8144 H         1 <0>         0.1407
     39 H10         4.2978   -0.1918   -0.6759 H         1 <0>         0.4101
     40 H11        -1.2536   -6.2941    4.9598 H         1 <0>         0.4527
     41 H12         0.6735   -8.2937    9.5009 H         1 <0>         0.1506
     42 H13        -3.4330   -9.0222    8.5904 H         1 <0>         0.1525
     43 H14        -3.2049   -7.7640    6.4896 H         1 <0>         0.1477
@<TRIPOS>BOND
     1    1    6 ar
     2    1    2 ar
     3    1   31 1
     4    2    3 ar
     5    2   32 1
     6    3    4 ar
     7    3   33 1
     8    4   16 1
     9    4    5 ar
    10    5    6 ar
    11    5    7 1
    12    6   34 1
    13    7    8 1
    14    7   35 1
    15    8   13 ar
    16    8    9 ar
    17    9   10 ar
    18    9   36 1
    19   10   11 ar
    20   10   17 1
    21   11   12 ar
    22   11   37 1
    23   12   13 ar
    24   12   38 1
    25   13   14 1
    26   14   15 2
    27   14   16 am
    28   16   39 1
    29   17   18 2
    30   17   19 1
    31   19   20 2
    32   20   29 1
    33   20   21 1
    34   21   23 1
    35   21   22 1
    36   23   24 ar
    37   23   28 ar
    38   24   25 ar
    39   24   41 1
    40   25   26 ar
    41   25   30 1
    42   26   27 ar
    43   26   42 1
    44   27   28 ar
    45   27   43 1
    46   28   29 1
    47   29   40 1
@<TRIPOS>MOLECULE
CHEMBL202602
   72    75     0     0     0
SMALL
USER_CHARGES

@<TRIPOS>ATOM
      1 C1         -1.4388    0.6425   -0.4512 C.3       1 <0>         0.0741
      2 N1         -0.1496    0.2534    0.1257 N.pl3     1 <0>        -0.9550
      3 C2         -0.0964   -0.7272    1.1199 C.ar      1 <0>         0.1524
      4 C3          0.4353   -0.4227    2.3645 C.ar      1 <0>        -0.0591
      5 C4          0.4899   -1.4004    3.3602 C.ar      1 <0>        -0.1359
      6 C5          0.0085   -2.6836    3.1019 C.ar      1 <0>        -0.0571
      7 C6         -0.5250   -2.9852    1.8512 C.ar      1 <0>        -0.1279
      8 C7         -0.5809   -2.0016    0.8619 C.ar      1 <0>        -0.0310
      9 C8         -1.0366   -4.3446    1.5731 C.2       1 <0>         0.5668
     10 O1         -1.5021   -4.6072    0.4814 O.2       1 <0>        -0.4970
     11 N2         -0.9866   -5.2923    2.5300 N.am      1 <0>        -0.7243
     12 C9         -1.4933   -6.6390    2.2545 C.3       1 <0>         0.1281
     13 H1         -2.3574   -6.5738    1.5933 H         1 <0>         0.1114
     14 C10        -0.3978   -7.4684    1.5816 C.3       1 <0>        -0.1019
     15 C11        -0.0786   -6.8786    0.2321 C.ar      1 <0>        -0.0805
     16 C12        -0.7710   -7.3000   -0.8877 C.ar      1 <0>        -0.1070
     17 C13        -0.4783   -6.7591   -2.1256 C.ar      1 <0>        -0.1106
     18 C14         0.5067   -5.7964   -2.2438 C.ar      1 <0>        -0.1099
     19 C15         1.1985   -5.3743   -1.1239 C.ar      1 <0>        -0.1089
     20 C16         0.9028   -5.9122    0.1147 C.ar      1 <0>        -0.1072
     21 C17        -1.9052   -7.3075    3.5676 C.3       1 <0>         0.0739
     22 H2         -2.6207   -6.6723    4.0899 H         1 <0>         0.1335
     23 C18        -2.5492   -8.6630    3.2697 C.3       1 <0>        -0.0411
     24 N3         -3.0522   -9.2511    4.5184 N.4       1 <0>        -0.4745
     25 C19        -3.6704  -10.5527    4.2324 C.3       1 <0>        -0.0863
     26 C20        -5.1687  -10.6984    4.5060 C.3       1 <0>        -0.1540
     27 C21        -4.1533  -11.3824    5.4237 C.3       1 <0>        -0.1531
     28 O2         -0.7506   -7.4985    4.3875 O.3       1 <0>        -0.5487
     29 C22         1.0573   -1.0759    4.6855 C.2       1 <0>         0.4381
     30 O3          1.0447    0.0710    5.0877 O.2       1 <0>        -0.4330
     31 C23         1.6399   -2.1456    5.5217 C.ar      1 <0>        -0.1617
     32 C24         2.0563   -3.3443    4.9378 C.ar      1 <0>        -0.0854
     33 C25         2.5992   -4.3386    5.7244 C.ar      1 <0>        -0.1284
     34 C26         2.7319   -4.1508    7.0891 C.ar      1 <0>        -0.0857
     35 C27         2.3211   -2.9660    7.6743 C.ar      1 <0>        -0.1262
     36 C28         1.7821   -1.9607    6.8989 C.ar      1 <0>        -0.0584
     37 S1          1.2447    0.9756   -0.4005 S.o2      1 <0>         2.5981
     38 O4          2.2735    0.0452   -0.0922 O.2       1 <0>        -0.9390
     39 O5          0.9779    1.3406   -1.7476 O.2       1 <0>        -0.9382
     40 C29         1.4168    2.4607    0.6269 C.3       1 <0>        -0.6729
     41 H3         -1.8622    1.4641    0.1264 H         1 <0>         0.0676
     42 H4         -1.2937    0.9610   -1.4835 H         1 <0>         0.0966
     43 H5         -2.1198   -0.2083   -0.4259 H         1 <0>         0.0826
     44 H6          0.8078    0.5713    2.5635 H         1 <0>         0.1398
     45 H7          0.0497   -3.4419    3.8699 H         1 <0>         0.1406
     46 H8         -0.9980   -2.2341   -0.1068 H         1 <0>         0.1502
     47 H9         -0.6151   -5.0827    3.4012 H         1 <0>         0.4058
     48 H10         0.4978   -7.4597    2.2030 H         1 <0>         0.0830
     49 H11        -0.7437   -8.4945    1.4571 H         1 <0>         0.0800
     50 H12        -1.5406   -8.0522   -0.7953 H         1 <0>         0.1117
     51 H13        -1.0188   -7.0888   -3.0005 H         1 <0>         0.1197
     52 H14         0.7359   -5.3742   -3.2111 H         1 <0>         0.1208
     53 H15         1.9683   -4.6224   -1.2163 H         1 <0>         0.1200
     54 H16         1.4407   -5.5797    0.9902 H         1 <0>         0.1110
     55 H17        -3.3764   -8.5271    2.5731 H         1 <0>         0.1477
     56 H18        -1.8075   -9.3283    2.8277 H         1 <0>         0.1418
     57 H19        -2.2864   -9.3770    5.1633 H         1 <0>         0.4333
     58 H20        -3.2599  -11.0905    3.3778 H         1 <0>         0.1782
     59 H21        -5.6956   -9.8286    4.8982 H         1 <0>         0.1218
     60 H22        -5.7442  -11.3322    3.8313 H         1 <0>         0.1345
     61 H23        -4.0608  -12.4662    5.3527 H         1 <0>         0.1349
     62 H24        -4.0123  -10.9626    6.4196 H         1 <0>         0.1221
     63 H25        -0.0701   -8.0553    3.9851 H         1 <0>         0.3921
     64 H26         1.9530   -3.4923    3.8730 H         1 <0>         0.1325
     65 H27         2.9213   -5.2661    5.2744 H         1 <0>         0.1296
     66 H28         3.1578   -4.9328    7.7003 H         1 <0>         0.1293
     67 H29         2.4272   -2.8263    8.7399 H         1 <0>         0.1329
     68 H30         1.4663   -1.0346    7.3562 H         1 <0>         0.1354
     69 H31         1.4835    2.1712    1.6757 H         1 <0>         0.1290
     70 H32         2.3206    2.9981    0.3401 H         1 <0>         0.1378
     71 H33         0.5496    3.1050    0.4823 H         1 <0>         0.1345
     72 H34        -3.7388   -8.6353    4.9275 H         1 <0>         0.4266
@<TRIPOS>BOND
     1    1    2 1
     2    1   41 1
     3    1   42 1
     4    1   43 1
     5    2    3 1
     6    2   37 1
     7    3    8 ar
     8    3    4 ar
     9    4    5 ar
    10    4   44 1
    11    5    6 ar
    12    5   29 1
    13    6    7 ar
    14    6   45 1
    15    7    8 ar
    16    7    9 1
    17    8   46 1
    18    9   10 2
    19    9   11 am
    20   11   12 1
    21   11   47 1
    22   12   13 1
    23   12   14 1
    24   12   21 1
    25   14   15 1
    26   14   48 1
    27   14   49 1
    28   15   20 ar
    29   15   16 ar
    30   16   17 ar
    31   16   50 1
    32   17   18 ar
    33   17   51 1
    34   18   19 ar
    35   18   52 1
    36   19   20 ar
    37   19   53 1
    38   20   54 1
    39   21   22 1
    40   21   23 1
    41   21   28 1
    42   23   24 1
    43   23   55 1
    44   23   56 1
    45   24   25 1
    46   24   57 1
    47   24   72 1
    48   25   27 1
    49   25   26 1
    50   25   58 1
    51   26   27 1
    52   26   59 1
    53   26   60 1
    54   27   61 1
    55   27   62 1
    56   28   63 1
    57   29   30 2
    58   29   31 1
    59   31   36 ar
    60   31   32 ar
    61   32   33 ar
    62   32   64 1
    63   33   34 ar
    64   33   65 1
    65   34   35 ar
    66   34   66 1
    67   35   36 ar
    68   35   67 1
    69   36   68 1
    70   37   38 2
    71   37   39 2
    72   37   40 1
    73   40   69 1
    74   40   70 1
    75   40   71 1
@<TRIPOS>MOLECULE
CHEMBL205309
   67    70     0     0     0
SMALL
USER_CHARGES

@<TRIPOS>ATOM
      1 C1         -0.0257    1.5517   -0.0186 C.3       1 <0>        -0.1857
      2 C2         -0.0130    0.0217   -0.0271 C.3       1 <0>         0.1350
      3 C3          0.7169   -0.4892    1.2167 C.3       1 <0>        -0.1857
      4 C4         -1.4513   -0.5002   -0.0249 C.3       1 <0>        -0.1406
      5 O1          0.6603   -0.4425   -1.1989 O.3       1 <0>        -0.3566
      6 C5          1.9446   -0.0692   -1.3542 C.2       1 <0>         0.6542
      7 O2          2.4790    0.6315   -0.5177 O.2       1 <0>        -0.5619
      8 N1          2.6374   -0.4729   -2.4376 N.am      1 <0>        -0.5935
      9 C6          2.0021   -1.3155   -3.4604 C.3       1 <0>         0.0958
     10 C7          2.1464   -0.6256   -4.8226 C.3       1 <0>         0.1307
     11 N2          3.5505   -0.2306   -5.0024 N.pl3     1 <0>        -0.6758
     12 C8          4.1858    0.6121   -3.9796 C.3       1 <0>         0.1247
     13 C9          4.0398   -0.0732   -2.6202 C.3       1 <0>         0.1111
     14 C10         4.2699   -0.6496   -6.1273 C.ar      1 <0>         0.1594
     15 C11         4.2796    0.1279   -7.2759 C.ar      1 <0>        -0.0992
     16 C12         4.9906   -0.2877   -8.3860 C.ar      1 <0>        -0.0957
     17 C13         5.6937   -1.4790   -8.3558 C.ar      1 <0>        -0.0751
     18 C14         5.6893   -2.2602   -7.2145 C.ar      1 <0>        -0.0875
     19 C15         4.9835   -1.8473   -6.0946 C.ar      1 <0>         0.1423
     20 N3          4.9823   -2.6345   -4.9350 N.am      1 <0>        -0.6636
     21 C16         5.0086   -3.9785   -5.0329 C.2       1 <0>         0.5146
     22 O3          5.1152   -4.5054   -6.1202 O.2       1 <0>        -0.4977
     23 C17         4.9055   -4.8265   -3.7914 C.3       1 <0>        -0.1137
     24 C18         4.9593   -6.2836   -4.1725 C.2       1 <0>         0.0536
     25 C19         6.1307   -6.9706   -4.1394 C.2       1 <0>        -0.2401
     26 C20         6.1550   -8.3335   -4.5002 C.2       1 <0>         0.5148
     27 O4          7.2120   -8.9376   -4.4657 O.2       1 <0>        -0.4580
     28 O5          5.0431   -8.9822   -4.8801 O.3       1 <0>        -0.2679
     29 C21         3.8469   -8.3582   -4.9347 C.ar      1 <0>         0.1930
     30 C22         3.7491   -6.9989   -4.5826 C.ar      1 <0>        -0.1797
     31 C23         2.5105   -6.3497   -4.6330 C.ar      1 <0>        -0.0127
     32 C24         1.3981   -7.0401   -5.0193 C.ar      1 <0>        -0.2229
     33 C25         1.4878   -8.3871   -5.3639 C.ar      1 <0>         0.1877
     34 C26         2.7079   -9.0428   -5.3299 C.ar      1 <0>        -0.1735
     35 O6          0.3723   -9.0600   -5.7456 O.3       1 <0>        -0.3053
     36 C27        -0.8526   -8.3244   -5.7698 C.3       1 <0>         0.0231
     37 Br1         6.6628   -2.0408   -9.8793 Br        1 <0>        -0.0404
     38 H1          0.9989    1.9235   -0.0202 H         1 <0>         0.0869
     39 H2         -0.5457    1.9157   -0.9047 H         1 <0>         0.0589
     40 H3         -0.5393    1.9058    0.8752 H         1 <0>         0.0708
     41 H4          0.2033   -0.1351    2.1105 H         1 <0>         0.0709
     42 H5          0.7259   -1.5792    1.2106 H         1 <0>         0.0588
     43 H6          1.7415   -0.1174    1.2151 H         1 <0>         0.0870
     44 H7         -1.9713   -0.1362   -0.9110 H         1 <0>         0.0666
     45 H8         -1.4423   -1.5901   -0.0310 H         1 <0>         0.0663
     46 H9         -1.9649   -0.1461    0.8689 H         1 <0>         0.0815
     47 H10         2.4927   -2.2884   -3.4893 H         1 <0>         0.0665
     48 H11         0.9455   -1.4428   -3.2250 H         1 <0>         0.1009
     49 H12         1.8563   -1.3158   -5.6148 H         1 <0>         0.0842
     50 H13         1.5106    0.2591   -4.8538 H         1 <0>         0.0630
     51 H14         5.2424    0.7393   -4.2151 H         1 <0>         0.0887
     52 H15         3.6951    1.5850   -3.9507 H         1 <0>         0.0655
     53 H16         4.3285    0.6199   -1.8300 H         1 <0>         0.1086
     54 H17         4.6788   -0.9556   -2.5879 H         1 <0>         0.0654
     55 H18         3.7312    1.0580   -7.3030 H         1 <0>         0.1372
     56 H19         4.9971    0.3189   -9.2795 H         1 <0>         0.1364
     57 H20         6.2388   -3.1897   -7.1942 H         1 <0>         0.1516
     58 H21         4.9625   -2.2121   -4.0620 H         1 <0>         0.4106
     59 H22         5.7349   -4.5949   -3.1232 H         1 <0>         0.1235
     60 H23         3.9626   -4.6177   -3.2860 H         1 <0>         0.1186
     61 H24         7.0412   -6.4741   -3.8379 H         1 <0>         0.1636
     62 H25         2.4348   -5.3058   -4.3667 H         1 <0>         0.1342
     63 H26         0.4422   -6.5390   -5.0578 H         1 <0>         0.1416
     64 H27         2.7694  -10.0870   -5.5987 H         1 <0>         0.1542
     65 H28        -1.0676   -7.9436   -4.7714 H         1 <0>         0.0616
     66 H29        -0.7616   -7.4900   -6.4652 H         1 <0>         0.0616
     67 H30        -1.6629   -8.9787   -6.0914 H         1 <0>         0.1074
@<TRIPOS>BOND
     1    1    2 1
     2    1   38 1
     3    1   39 1
     4    1   40 1
     5    2    3 1
     6    2    4 1
     7    2    5 1
     8    3   41 1
     9    3   42 1
    10    3   43 1
    11    4   44 1
    12    4   45 1
    13    4   46 1
    14    5    6 1
    15    6    7 2
    16    6    8 am
    17    8   13 1
    18    8    9 1
    19    9   10 1
    20    9   47 1
    21    9   48 1
    22   10   11 1
    23   10   49 1
    24   10   50 1
    25   11   12 1
    26   11   14 1
    27   12   13 1
    28   12   51 1
    29   12   52 1
    30   13   53 1
    31   13   54 1
    32   14   19 ar
    33   14   15 ar
    34   15   16 ar
    35   15   55 1
    36   16   17 ar
    37   16   56 1
    38   17   18 ar
    39   17   37 1
    40   18   19 ar
    41   18   57 1
    42   19   20 1
    43   20   21 am
    44   20   58 1
    45   21   22 2
    46   21   23 1
    47   23   24 1
    48   23   59 1
    49   23   60 1
    50   24   30 1
    51   24   25 2
    52   25   26 1
    53   25   61 1
    54   26   27 2
    55   26   28 1
    56   28   29 1
    57   29   34 ar
    58   29   30 ar
    59   30   31 ar
    60   31   32 ar
    61   31   62 1
    62   32   33 ar
    63   32   63 1
    64   33   34 ar
    65   33   35 1
    66   34   64 1
    67   35   36 1
    68   36   65 1
    69   36   66 1
    70   36   67 1
@<TRIPOS>MOLECULE
CHEMBL219601
   70    73     0     0     0
SMALL
USER_CHARGES

@<TRIPOS>ATOM
      1 C1         -0.0187    1.5258    0.0104 C.3       1 <0>        -0.1617
      2 C2          0.0021   -0.0041    0.0020 C.3       1 <0>         0.1848
      3 H1          0.5123   -0.3556   -0.8948 H         1 <0>         0.1063
      4 C3         -1.4117   -0.5257    0.0127 C.ar      1 <0>        -0.1044
      5 C4         -2.1224   -0.5707    1.1977 C.ar      1 <0>        -0.0920
      6 C5         -3.4191   -1.0484    1.2086 C.ar      1 <0>        -0.1539
      7 C6         -4.0065   -1.4821    0.0322 C.ar      1 <0>         0.1044
      8 C7         -3.2938   -1.4366   -1.1540 C.ar      1 <0>        -0.1434
      9 C8         -1.9990   -0.9535   -1.1634 C.ar      1 <0>        -0.0710
     10 F1         -5.2740   -1.9497    0.0418 F         1 <0>        -0.1351
     11 N1          0.7106   -0.4894    1.1889 N.am      1 <0>        -0.7202
     12 C9          2.0538   -0.5998    1.1737 C.2       1 <0>         0.5621
     13 O1          2.6772   -0.2967    0.1752 O.2       1 <0>        -0.5116
     14 C10         2.7690   -1.0897    2.3717 C.ar      1 <0>        -0.0986
     15 C11         2.0545   -1.4428    3.5150 C.ar      1 <0>        -0.0736
     16 C12         2.7321   -1.9038    4.6416 C.ar      1 <0>        -0.0142
     17 C13         4.1234   -2.0107    4.6222 C.ar      1 <0>        -0.0810
     18 C14         4.8319   -1.6580    3.4829 C.ar      1 <0>         0.1812
     19 C15         4.1596   -1.2043    2.3569 C.ar      1 <0>        -0.0494
     20 N2          6.2250   -1.7658    3.4670 N.pl3     1 <0>        -0.9420
     21 C16         6.9320   -1.9369    2.1953 C.3       1 <0>         0.0734
     22 S1          7.0769   -1.7001    4.8856 S.o2      1 <0>         2.5916
     23 O2          8.3637   -1.2254    4.5142 O.2       1 <0>        -0.9281
     24 O3          6.2544   -0.9489    5.7679 O.2       1 <0>        -0.9368
     25 C17         7.1838   -3.4223    5.4453 C.3       1 <0>        -0.6704
     26 C18         1.9778   -2.2791    5.8570 C.2       1 <0>         0.2660
     27 N3          2.4863   -2.7200    6.9834 N.2       1 <0>        -0.2552
     28 N4          1.5343   -2.9447    7.8193 N.2       1 <0>        -0.2087
     29 C19         0.3901   -2.6584    7.2639 C.2       1 <0>         0.0906
     30 O4          0.6402   -2.2263    6.0159 O.3       1 <0>        -0.2304
     31 C20        -0.9671   -2.7831    7.9070 C.3       1 <0>         0.1965
     32 C21        -1.2076   -4.2386    8.3125 C.3       1 <0>        -0.1815
     33 C22        -1.0270   -1.8911    9.1487 C.3       1 <0>        -0.0915
     34 C23        -2.3842   -2.0158    9.7918 C.ar      1 <0>        -0.1316
     35 C24        -3.4093   -1.1699    9.4119 C.ar      1 <0>        -0.1414
     36 C25        -4.6543   -1.2842   10.0018 C.ar      1 <0>        -0.1060
     37 C26        -4.8741   -2.2448   10.9712 C.ar      1 <0>        -0.0981
     38 C27        -3.8492   -3.0914   11.3504 C.ar      1 <0>        -0.1041
     39 C28        -2.6055   -2.9799   10.7574 C.ar      1 <0>        -0.0991
     40 N5         -2.0018   -2.3634    6.9523 N.4       1 <0>        -0.6366
     41 H2          1.0039    1.9031    0.0027 H         1 <0>         0.0707
     42 H3         -0.5459    1.8868   -0.8726 H         1 <0>         0.0748
     43 H4         -0.5289    1.8773    0.9072 H         1 <0>         0.0596
     44 H5         -1.6639   -0.2327    2.1152 H         1 <0>         0.1254
     45 H6         -3.9740   -1.0837    2.1345 H         1 <0>         0.1340
     46 H7         -3.7509   -1.7749   -2.0722 H         1 <0>         0.1431
     47 H8         -1.4444   -0.9138   -2.0893 H         1 <0>         0.1406
     48 H9          0.2131   -0.7312    1.9857 H         1 <0>         0.3947
     49 H10         0.9778   -1.3589    3.5277 H         1 <0>         0.1360
     50 H11         4.6491   -2.3680    5.4953 H         1 <0>         0.1517
     51 H12         4.7136   -0.9351    1.4697 H         1 <0>         0.1608
     52 H13         7.1852   -0.9590    1.7859 H         1 <0>         0.0801
     53 H14         7.8449   -2.5088    2.3613 H         1 <0>         0.0911
     54 H15         6.2918   -2.4703    1.4926 H         1 <0>         0.0878
     55 H16         7.7000   -4.0177    4.6922 H         1 <0>         0.1363
     56 H17         7.7361   -3.4656    6.3840 H         1 <0>         0.1412
     57 H18         6.1796   -3.8184    5.5960 H         1 <0>         0.1303
     58 H19        -0.4399   -4.5500    9.0208 H         1 <0>         0.1246
     59 H20        -2.1892   -4.3288    8.7776 H         1 <0>         0.1090
     60 H21        -1.1649   -4.8740    7.4279 H         1 <0>         0.0917
     61 H22        -0.2593   -2.2025    9.8570 H         1 <0>         0.1366
     62 H23        -0.8557   -0.8542    8.8598 H         1 <0>         0.1061
     63 H24        -3.2375   -0.4193    8.6546 H         1 <0>         0.1237
     64 H25        -5.4550   -0.6228    9.7056 H         1 <0>         0.1339
     65 H26        -5.8466   -2.3337   11.4326 H         1 <0>         0.1342
     66 H27        -4.0209   -3.8417   12.1080 H         1 <0>         0.1355
     67 H28        -1.8058   -3.6437   11.0510 H         1 <0>         0.1348
     68 H29        -1.9623   -2.9516    6.1334 H         1 <0>         0.4406
     69 H30        -2.9105   -2.4469    7.3829 H         1 <0>         0.4466
     70 H31        -1.8432   -1.4035    6.6849 H         1 <0>         0.4391
@<TRIPOS>BOND
     1    1    2 1
     2    1   41 1
     3    1   42 1
     4    1   43 1
     5    2    3 1
     6    2    4 1
     7    2   11 1
     8    4    9 ar
     9    4    5 ar
    10    5    6 ar
    11    5   44 1
    12    6    7 ar
    13    6   45 1
    14    7    8 ar
    15    7   10 1
    16    8    9 ar
    17    8   46 1
    18    9   47 1
    19   11   12 am
    20   11   48 1
    21   12   13 2
    22   12   14 1
    23   14   19 ar
    24   14   15 ar
    25   15   16 ar
    26   15   49 1
    27   16   17 ar
    28   16   26 1
    29   17   18 ar
    30   17   50 1
    31   18   19 ar
    32   18   20 1
    33   19   51 1
    34   20   21 1
    35   20   22 1
    36   21   52 1
    37   21   53 1
    38   21   54 1
    39   22   23 2
    40   22   24 2
    41   22   25 1
    42   25   55 1
    43   25   56 1
    44   25   57 1
    45   26   30 1
    46   26   27 2
    47   27   28 1
    48   28   29 2
    49   29   30 1
    50   29   31 1
    51   31   32 1
    52   31   33 1
    53   31   40 1
    54   32   58 1
    55   32   59 1
    56   32   60 1
    57   33   34 1
    58   33   61 1
    59   33   62 1
    60   34   39 ar
    61   34   35 ar
    62   35   36 ar
    63   35   63 1
    64   36   37 ar
    65   36   64 1
    66   37   38 ar
    67   37   65 1
    68   38   39 ar
    69   38   66 1
    70   39   67 1
    71   40   68 1
    72   40   69 1
    73   40   70 1
@<TRIPOS>MOLECULE
CHEMBL500555
   78    82     0     0     0
SMALL
USER_CHARGES

@<TRIPOS>ATOM
      1 C1         -0.0187    1.5258    0.0104 C.3       1 <0>        -0.1725
      2 C2          0.0021   -0.0041    0.0020 C.3       1 <0>         0.1054
      3 N1         -1.3723   -0.5112    0.0124 N.pl3     1 <0>        -0.4896
      4 C3         -2.0871   -0.8799    1.1082 C.2       1 <0>         0.2814
      5 N2         -3.2737   -1.2822    0.7541 N.2       1 <0>        -0.4887
      6 C4         -3.4013   -1.1991   -0.5927 C.ar      1 <0>         0.0825
      7 C5         -2.1853   -0.6979   -1.0895 C.ar      1 <0>         0.0433
      8 C6         -2.0194   -0.4982   -2.4496 C.ar      1 <0>        -0.0646
      9 C7         -3.0623   -0.7924   -3.3261 C.ar      1 <0>        -0.1167
     10 C8         -4.2765   -1.2891   -2.8350 C.ar      1 <0>        -0.0643
     11 C9         -4.4465   -1.4981   -1.4830 C.ar      1 <0>         0.1968
     12 N3         -5.6618   -1.9921   -0.9971 N.am      1 <0>        -0.5769
     13 C10        -6.8001   -1.1522   -0.6060 C.3       1 <0>         0.1071
     14 C11        -8.0177   -2.1020   -0.5635 C.3       1 <0>        -0.1310
     15 C12        -7.3431   -3.4676   -0.2969 C.3       1 <0>        -0.1522
     16 C13        -5.9392   -3.2972   -0.8340 C.2       1 <0>         0.5260
     17 O1         -5.1741   -4.2059   -1.0791 O.2       1 <0>        -0.5204
     18 C14        -2.8869   -0.5795   -4.7764 C.2       1 <0>         0.5712
     19 O2         -3.7955   -0.8356   -5.5427 O.2       1 <0>        -0.4994
     20 N4         -1.7196   -0.1013   -5.2510 N.am      1 <0>        -0.7261
     21 C15        -1.5455    0.1099   -6.6902 C.3       1 <0>         0.1276
     22 H1         -2.0838   -0.6631   -7.2386 H         1 <0>         0.1111
     23 C16        -2.0962    1.4848   -7.0741 C.3       1 <0>        -0.1014
     24 C17        -3.5853    1.5116   -6.8445 C.ar      1 <0>        -0.0798
     25 C18        -4.4477    1.1339   -7.8567 C.ar      1 <0>        -0.1063
     26 C19        -5.8137    1.1585   -7.6461 C.ar      1 <0>        -0.1108
     27 C20        -6.3173    1.5602   -6.4230 C.ar      1 <0>        -0.1096
     28 C21        -5.4549    1.9369   -5.4105 C.ar      1 <0>        -0.1087
     29 C22        -4.0888    1.9083   -5.6197 C.ar      1 <0>        -0.1053
     30 C23        -0.0576    0.0408   -7.0396 C.3       1 <0>         0.0744
     31 H2          0.3551   -0.9041   -6.6859 H         1 <0>         0.1342
     32 C24         0.1151    0.1367   -8.5568 C.3       1 <0>        -0.0479
     33 N5          1.5309   -0.0496   -8.9012 N.4       1 <0>        -0.5052
     34 C25         1.6967    0.0425  -10.3579 C.3       1 <0>         0.0466
     35 C26         3.1492   -0.1485  -10.7113 C.ar      1 <0>        -0.1685
     36 C27         3.9950    0.9434  -10.7730 C.ar      1 <0>        -0.0603
     37 C28         5.3271    0.7682  -11.0970 C.ar      1 <0>        -0.1108
     38 C29         5.8139   -0.4990  -11.3591 C.ar      1 <0>        -0.0359
     39 C30         4.9686   -1.5907  -11.2966 C.ar      1 <0>        -0.1744
     40 C31         3.6370   -1.4159  -10.9682 C.ar      1 <0>        -0.0436
     41 C32         5.4991   -2.9719  -11.5827 C.3       1 <0>         0.5060
     42 F1          6.8629   -2.8943  -11.8847 F         1 <0>        -0.1689
     43 F2          5.3159   -3.7840  -10.4584 F         1 <0>        -0.1727
     44 F3          4.8110   -3.5196  -12.6707 F         1 <0>        -0.1700
     45 O3          0.6299    1.1253   -6.4124 O.3       1 <0>        -0.5499
     46 H3          1.0039    1.9031    0.0027 H         1 <0>         0.0807
     47 H4         -0.5459    1.8868   -0.8726 H         1 <0>         0.0610
     48 H5         -0.5289    1.8773    0.9072 H         1 <0>         0.0673
     49 H6          0.5123   -0.3556   -0.8948 H         1 <0>         0.0892
     50 H7          0.5293   -0.3651    0.8851 H         1 <0>         0.1023
     51 H8         -1.7235   -0.8449    2.1245 H         1 <0>         0.2198
     52 H9         -1.0842   -0.1150   -2.8303 H         1 <0>         0.1252
     53 H10        -5.0809   -1.5152   -3.5193 H         1 <0>         0.1453
     54 H11        -6.6269   -0.7166    0.3781 H         1 <0>         0.0779
     55 H12        -6.9603   -0.3664   -1.3442 H         1 <0>         0.0798
     56 H13        -8.6925   -1.8349    0.2498 H         1 <0>         0.0962
     57 H14        -8.5428   -2.1061   -1.5186 H         1 <0>         0.0852
     58 H15        -7.3236   -3.6813    0.7717 H         1 <0>         0.1099
     59 H16        -7.8612   -4.2607   -0.8361 H         1 <0>         0.1060
     60 H17        -0.9947    0.1030   -4.6397 H         1 <0>         0.4042
     61 H18        -1.6203    2.2507   -6.4618 H         1 <0>         0.0815
     62 H19        -1.8872    1.6791   -8.1261 H         1 <0>         0.0795
     63 H20        -4.0542    0.8201   -8.8123 H         1 <0>         0.1119
     64 H21        -6.4874    0.8641   -8.4372 H         1 <0>         0.1198
     65 H22        -7.3845    1.5800   -6.2587 H         1 <0>         0.1203
     66 H23        -5.8484    2.2511   -4.4550 H         1 <0>         0.1177
     67 H24        -3.4149    2.1991   -4.8274 H         1 <0>         0.1097
     68 H25        -0.4812   -0.6373   -9.0400 H         1 <0>         0.1500
     69 H26        -0.2162    1.1171   -8.8989 H         1 <0>         0.1438
     70 H27         2.0829    0.6669   -8.4539 H         1 <0>         0.4325
     71 H28         1.1004   -0.7314  -10.8411 H         1 <0>         0.1436
     72 H29         1.3655    1.0230  -10.7000 H         1 <0>         0.1446
     73 H30         3.6147    1.9333  -10.5682 H         1 <0>         0.1436
     74 H31         5.9877    1.6212  -11.1459 H         1 <0>         0.1511
     75 H32         6.8547   -0.6359  -11.6131 H         1 <0>         0.1531
     76 H33         2.9773   -2.2694  -10.9157 H         1 <0>         0.1442
     77 H34         0.3141    1.9989   -6.6809 H         1 <0>         0.3916
     78 H35         1.8376   -0.9572   -8.5845 H         1 <0>         0.4297
@<TRIPOS>BOND
     1    1    2 1
     2    1   46 1
     3    1   47 1
     4    1   48 1
     5    2    3 1
     6    2   49 1
     7    2   50 1
     8    3    7 1
     9    3    4 1
    10    4    5 2
    11    4   51 1
    12    5    6 1
    13    6   11 ar
    14    6    7 ar
    15    7    8 ar
    16    8    9 ar
    17    8   52 1
    18    9   10 ar
    19    9   18 1
    20   10   11 ar
    21   10   53 1
    22   11   12 1
    23   12   16 am
    24   12   13 1
    25   13   14 1
    26   13   54 1
    27   13   55 1
    28   14   15 1
    29   14   56 1
    30   14   57 1
    31   15   16 1
    32   15   58 1
    33   15   59 1
    34   16   17 2
    35   18   19 2
    36   18   20 am
    37   20   21 1
    38   20   60 1
    39   21   22 1
    40   21   23 1
    41   21   30 1
    42   23   24 1
    43   23   61 1
    44   23   62 1
    45   24   29 ar
    46   24   25 ar
    47   25   26 ar
    48   25   63 1
    49   26   27 ar
    50   26   64 1
    51   27   28 ar
    52   27   65 1
    53   28   29 ar
    54   28   66 1
    55   29   67 1
    56   30   31 1
    57   30   32 1
    58   30   45 1
    59   32   33 1
    60   32   68 1
    61   32   69 1
    62   33   34 1
    63   33   70 1
    64   33   78 1
    65   34   35 1
    66   34   71 1
    67   34   72 1
    68   35   40 ar
    69   35   36 ar
    70   36   37 ar
    71   36   73 1
    72   37   38 ar
    73   37   74 1
    74   38   39 ar
    75   38   75 1
    76   39   40 ar
    77   39   41 1
    78   40   76 1
    79   41   42 1
    80   41   43 1
    81   41   44 1
    82   45   77 1
@<TRIPOS>MOLECULE
CHEMBL253866
   76    79     0     0     0
SMALL
USER_CHARGES

@<TRIPOS>ATOM
      1 C1         -0.0187    1.5258    0.0104 C.3       1 <0>        -0.1560
      2 C2          0.0021   -0.0041    0.0020 C.3       1 <0>         0.0554
      3 O1          0.6932   -0.4774    1.1597 O.3       1 <0>        -0.3082
      4 C3          0.8020   -1.8244    1.3057 C.ar      1 <0>         0.1354
      5 C4          1.4555   -2.3496    2.4095 C.ar      1 <0>        -0.1059
      6 C5          1.5690   -3.7307    2.5635 C.ar      1 <0>        -0.0212
      7 C6          1.0250   -4.5835    1.6069 C.ar      1 <0>        -0.0727
      8 C7          0.3686   -4.0528    0.4982 C.ar      1 <0>        -0.0985
      9 C8          0.2544   -2.6690    0.3537 C.ar      1 <0>        -0.1762
     10 C9         -0.2106   -4.9541   -0.5211 C.2       1 <0>         0.5665
     11 O2         -0.1143   -6.1589   -0.3922 O.2       1 <0>        -0.4987
     12 N1         -0.8453   -4.4396   -1.5930 N.am      1 <0>        -0.7254
     13 C10        -1.4191   -5.3326   -2.6028 C.3       1 <0>         0.1273
     14 H1         -0.7850   -6.2124   -2.7122 H         1 <0>         0.1111
     15 C11        -2.8198   -5.7648   -2.1645 C.3       1 <0>        -0.1019
     16 C12        -2.7203   -6.5936   -0.9099 C.ar      1 <0>        -0.0799
     17 C13        -2.5703   -7.9649   -0.9975 C.ar      1 <0>        -0.1064
     18 C14        -2.4790   -8.7252    0.1534 C.ar      1 <0>        -0.1108
     19 C15        -2.5371   -8.1140    1.3919 C.ar      1 <0>        -0.1095
     20 C16        -2.6862   -6.7425    1.4796 C.ar      1 <0>        -0.1089
     21 C17        -2.7732   -5.9818    0.3286 C.ar      1 <0>        -0.1061
     22 C18        -1.5077   -4.5979   -3.9419 C.3       1 <0>         0.0740
     23 H2         -0.5241   -4.2128   -4.2109 H         1 <0>         0.1340
     24 C19        -1.9895   -5.5664   -5.0240 C.3       1 <0>        -0.0476
     25 N2         -1.9604   -4.8949   -6.3303 N.4       1 <0>        -0.5054
     26 C20        -2.4230   -5.8248   -7.3692 C.3       1 <0>         0.0467
     27 C21        -2.3932   -5.1360   -8.7092 C.ar      1 <0>        -0.1688
     28 C22        -3.5028   -4.4419   -9.1546 C.ar      1 <0>        -0.0602
     29 C23        -3.4754   -3.8101  -10.3836 C.ar      1 <0>        -0.1107
     30 C24        -2.3382   -3.8720  -11.1674 C.ar      1 <0>        -0.0357
     31 C25        -1.2286   -4.5651  -10.7218 C.ar      1 <0>        -0.1743
     32 C26        -1.2545   -5.1934   -9.4906 C.ar      1 <0>        -0.0437
     33 C27         0.0108   -4.6329  -11.5765 C.3       1 <0>         0.5060
     34 F1         -0.2022   -3.9243  -12.7638 F         1 <0>        -0.1688
     35 F2          1.0868   -4.0684  -10.8831 F         1 <0>        -0.1728
     36 F3          0.2983   -5.9689  -11.8759 F         1 <0>        -0.1701
     37 O3         -2.4299   -3.5122   -3.8295 O.3       1 <0>        -0.5496
     38 C28         2.2685   -4.2904    3.7441 C.ar      1 <0>        -0.0090
     39 C29         1.6677   -5.2883    4.5060 C.ar      1 <0>        -0.1007
     40 C30         2.3227   -5.8074    5.6046 C.ar      1 <0>        -0.0862
     41 C31         3.5785   -5.3415    5.9578 C.ar      1 <0>        -0.1102
     42 C32         4.1906   -4.3532    5.2157 C.ar      1 <0>        -0.0677
     43 C33         3.5462   -3.8205    4.0982 C.ar      1 <0>        -0.0141
     44 C34         4.1792   -2.7983    3.3203 C.1       1 <0>         0.2452
     45 N3          4.6814   -1.9875    2.7032 N.1       1 <0>        -0.4010
     46 H3          1.0039    1.9031    0.0027 H         1 <0>         0.0696
     47 H4         -0.5459    1.8868   -0.8726 H         1 <0>         0.0809
     48 H5         -0.5289    1.8773    0.9072 H         1 <0>         0.0702
     49 H6         -1.0205   -0.3814    0.0098 H         1 <0>         0.0623
     50 H7          0.5123   -0.3556   -0.8948 H         1 <0>         0.0604
     51 H8          1.8778   -1.6879    3.1513 H         1 <0>         0.1369
     52 H9          1.1119   -5.6536    1.7236 H         1 <0>         0.1444
     53 H10        -0.2580   -2.2564   -0.5028 H         1 <0>         0.1298
     54 H11        -0.9221   -3.4782   -1.6959 H         1 <0>         0.4045
     55 H12        -3.4281   -4.8816   -1.9693 H         1 <0>         0.0818
     56 H13        -3.2815   -6.3564   -2.9551 H         1 <0>         0.0799
     57 H14        -2.5249   -8.4425   -1.9651 H         1 <0>         0.1118
     58 H15        -2.3625   -9.7967    0.0849 H         1 <0>         0.1199
     59 H16        -2.4665   -8.7080    2.2911 H         1 <0>         0.1209
     60 H17        -2.7320   -6.2650    2.4472 H         1 <0>         0.1187
     61 H18        -2.8859   -4.9099    0.3970 H         1 <0>         0.1096
     62 H19        -1.3355   -6.4380   -5.0489 H         1 <0>         0.1499
     63 H20        -3.0084   -5.8829   -4.8008 H         1 <0>         0.1438
     64 H21        -2.5658   -4.0881   -6.3073 H         1 <0>         0.4327
     65 H22        -1.7690   -6.6964   -7.3940 H         1 <0>         0.1435
     66 H23        -3.4419   -6.1413   -7.1460 H         1 <0>         0.1447
     67 H24        -4.3912   -4.3936   -8.5422 H         1 <0>         0.1436
     68 H25        -4.3425   -3.2685  -10.7317 H         1 <0>         0.1512
     69 H26        -2.3171   -3.3789  -12.1281 H         1 <0>         0.1532
     70 H27        -0.3861   -5.7319   -9.1407 H         1 <0>         0.1441
     71 H28        -3.3277   -3.7817   -3.5920 H         1 <0>         0.3918
     72 H29         0.6884   -5.6565    4.2377 H         1 <0>         0.1366
     73 H30         1.8528   -6.5816    6.1930 H         1 <0>         0.1369
     74 H31         4.0812   -5.7545    6.8198 H         1 <0>         0.1390
     75 H32         5.1698   -3.9947    5.4967 H         1 <0>         0.1386
     76 H33        -1.0172   -4.6020   -6.5369 H         1 <0>         0.4297
@<TRIPOS>BOND
     1    1    2 1
     2    1   46 1
     3    1   47 1
     4    1   48 1
     5    2    3 1
     6    2   49 1
     7    2   50 1
     8    3    4 1
     9    4    9 ar
    10    4    5 ar
    11    5    6 ar
    12    5   51 1
    13    6    7 ar
    14    6   38 1
    15    7    8 ar
    16    7   52 1
    17    8    9 ar
    18    8   10 1
    19    9   53 1
    20   10   11 2
    21   10   12 am
    22   12   13 1
    23   12   54 1
    24   13   14 1
    25   13   15 1
    26   13   22 1
    27   15   16 1
    28   15   55 1
    29   15   56 1
    30   16   21 ar
    31   16   17 ar
    32   17   18 ar
    33   17   57 1
    34   18   19 ar
    35   18   58 1
    36   19   20 ar
    37   19   59 1
    38   20   21 ar
    39   20   60 1
    40   21   61 1
    41   22   23 1
    42   22   24 1
    43   22   37 1
    44   24   25 1
    45   24   62 1
    46   24   63 1
    47   25   26 1
    48   25   64 1
    49   25   76 1
    50   26   27 1
    51   26   65 1
    52   26   66 1
    53   27   32 ar
    54   27   28 ar
    55   28   29 ar
    56   28   67 1
    57   29   30 ar
    58   29   68 1
    59   30   31 ar
    60   30   69 1
    61   31   32 ar
    62   31   33 1
    63   32   70 1
    64   33   34 1
    65   33   35 1
    66   33   36 1
    67   37   71 1
    68   38   43 ar
    69   38   39 ar
    70   39   40 ar
    71   39   72 1
    72   40   41 ar
    73   40   73 1
    74   41   42 ar
    75   41   74 1
    76   42   43 ar
    77   42   75 1
    78   43   44 1
    79   44   45 3
@<TRIPOS>MOLECULE
CHEMBL270822
   76    80     0     0     0
SMALL
USER_CHARGES

@<TRIPOS>ATOM
      1 C1         -0.0167    1.3781    0.0096 C.ar      1 <0>        -0.1026
      2 C2          1.1709    2.0855    0.0021 C.ar      1 <0>        -0.1213
      3 C3          2.3773    1.4107   -0.0130 C.ar      1 <0>        -0.0990
      4 C4          2.3960    0.0285   -0.0201 C.ar      1 <0>        -0.1092
      5 C5          1.2084   -0.6789   -0.0117 C.ar      1 <0>        -0.0953
      6 C6          0.0021   -0.0041    0.0020 C.ar      1 <0>        -0.1195
      7 C7          3.7112   -0.7071   -0.0376 C.3       1 <0>         0.1019
      8 O1          4.1410   -0.9464    1.3041 O.3       1 <0>        -0.3587
      9 C8          5.3853   -1.6423    1.4004 C.3       1 <0>         0.0683
     10 H1          5.5221   -2.2929    0.5366 H         1 <0>         0.1093
     11 C9          5.4392   -2.4669    2.7070 C.3       1 <0>        -0.1281
     12 C10         6.9057   -2.2833    3.1723 C.3       1 <0>        -0.0085
     13 H2          7.5676   -2.9623    2.6348 H         1 <0>         0.1551
     14 N1          7.2010   -0.8719    2.8163 N.4       1 <0>        -0.5102
     15 C11         6.5508   -0.6413    1.5055 C.3       1 <0>        -0.0340
     16 C12         7.0241   -2.4993    4.6823 C.3       1 <0>         0.0945
     17 H3          6.3960   -1.7766    5.2031 H         1 <0>         0.1337
     18 C13         8.4807   -2.3119    5.1116 C.3       1 <0>         0.1078
     19 H4          8.8332   -1.3341    4.7834 H         1 <0>         0.0974
     20 C14         9.3439   -3.4044    4.4775 C.3       1 <0>        -0.1091
     21 C15        10.7938   -3.1493    4.7995 C.ar      1 <0>        -0.0191
     22 C16        11.5613   -2.3683    3.9563 C.ar      1 <0>        -0.1586
     23 C17        12.8938   -2.1335    4.2510 C.ar      1 <0>         0.1471
     24 C18        13.4569   -2.6810    5.3908 C.ar      1 <0>        -0.1847
     25 C19        12.6871   -3.4627    6.2348 C.ar      1 <0>         0.1480
     26 C20        11.3535   -3.6918    5.9408 C.ar      1 <0>        -0.1612
     27 F1         13.2354   -3.9977    7.3477 F         1 <0>        -0.1249
     28 F2         13.6441   -1.3707    3.4261 F         1 <0>        -0.1275
     29 N2          8.5750   -2.4005    6.5709 N.am      1 <0>        -0.7223
     30 C21         9.5897   -1.7945    7.2186 C.2       1 <0>         0.5314
     31 O2         10.4247   -1.1758    6.5934 O.2       1 <0>        -0.5071
     32 C22         9.6867   -1.8856    8.7197 C.3       1 <0>        -0.1255
     33 H5          8.7965   -1.4701    9.1921 H         1 <0>         0.1247
     34 C23         9.9225   -3.3455    9.1714 C.3       1 <0>        -0.1477
     35 C24        10.8652   -3.2221   10.3481 C.2       1 <0>         0.5209
     36 O3         11.0805   -4.0966   11.1604 O.2       1 <0>        -0.5143
     37 N3         11.4300   -2.0024   10.3620 N.am      1 <0>        -0.6126
     38 C25        10.9637   -1.1854    9.2347 C.3       1 <0>         0.1173
     39 C26        12.3874   -1.5463   11.3728 C.3       1 <0>         0.1719
     40 C27        13.7875   -1.8766   10.9237 C.ar      1 <0>        -0.1684
     41 C28        14.3636   -3.0928   11.2582 C.ar      1 <0>        -0.0503
     42 C29        15.6539   -3.3535   10.8235 C.ar      1 <0>        -0.1711
     43 C30        16.3186   -2.3992   10.0763 C.ar      1 <0>         0.1057
     44 N4         15.7394   -1.2530    9.7773 N.ar      1 <0>        -0.4848
     45 C31        14.5114   -0.9736   10.1687 C.ar      1 <0>         0.1141
     46 O4          6.5979   -3.8236    5.0090 O.3       1 <0>        -0.5202
     47 H6         -0.9591    1.9053    0.0259 H         1 <0>         0.1285
     48 H7          1.1563    3.1654    0.0076 H         1 <0>         0.1277
     49 H8          3.3051    1.9634   -0.0196 H         1 <0>         0.1206
     50 H9          1.2231   -1.7588   -0.0176 H         1 <0>         0.1240
     51 H10        -0.9258   -0.5567    0.0082 H         1 <0>         0.1288
     52 H11         3.5884   -1.6586   -0.5549 H         1 <0>         0.0709
     53 H12         4.4573   -0.1052   -0.5563 H         1 <0>         0.0655
     54 H13         4.7468   -2.0640    3.4462 H         1 <0>         0.1163
     55 H14         5.2259   -3.5173    2.5093 H         1 <0>         0.1283
     56 H15         6.8155   -0.2499    3.5110 H         1 <0>         0.4341
     57 H16         7.2640   -0.8159    0.6999 H         1 <0>         0.1430
     58 H17         6.1701    0.3787    1.4534 H         1 <0>         0.1457
     59 H18         9.0492   -4.3761    4.8739 H         1 <0>         0.0984
     60 H19         9.2048   -3.3957    3.3964 H         1 <0>         0.0881
     61 H20        11.1218   -1.9412    3.0670 H         1 <0>         0.1320
     62 H21        14.4962   -2.4987    5.6212 H         1 <0>         0.1489
     63 H22        10.7515   -4.2980    6.6015 H         1 <0>         0.1342
     64 H23         7.9071   -2.8953    7.0709 H         1 <0>         0.4147
     65 H24         8.9840   -3.8053    9.4811 H         1 <0>         0.1144
     66 H25        10.3851   -3.9226    8.3707 H         1 <0>         0.1041
     67 H26        11.7207   -1.1574    8.4509 H         1 <0>         0.0890
     68 H27        10.7305   -0.1753    9.5712 H         1 <0>         0.0895
     69 H28        12.2923   -0.4683   11.5029 H         1 <0>         0.0954
     70 H29        12.1820   -2.0461   12.3194 H         1 <0>         0.0980
     71 H30        13.8201   -3.8195   11.8439 H         1 <0>         0.1371
     72 H31        16.1338   -4.2901   11.0658 H         1 <0>         0.1373
     73 H32        17.3240   -2.5946    9.7338 H         1 <0>         0.1572
     74 H33        14.0680   -0.0262    9.8999 H         1 <0>         0.1507
     75 H34         7.1137   -4.5199    4.5798 H         1 <0>         0.3908
     76 H35         8.1975   -0.7339    2.7385 H         1 <0>         0.4336
@<TRIPOS>BOND
     1    1    6 ar
     2    1    2 ar
     3    1   47 1
     4    2    3 ar
     5    2   48 1
     6    3    4 ar
     7    3   49 1
     8    4    5 ar
     9    4    7 1
    10    5    6 ar
    11    5   50 1
    12    6   51 1
    13    7    8 1
    14    7   52 1
    15    7   53 1
    16    8    9 1
    17    9   10 1
    18    9   15 1
    19    9   11 1
    20   11   12 1
    21   11   54 1
    22   11   55 1
    23   12   13 1
    24   12   14 1
    25   12   16 1
    26   14   15 1
    27   14   56 1
    28   14   76 1
    29   15   57 1
    30   15   58 1
    31   16   17 1
    32   16   18 1
    33   16   46 1
    34   18   19 1
    35   18   20 1
    36   18   29 1
    37   20   21 1
    38   20   59 1
    39   20   60 1
    40   21   26 ar
    41   21   22 ar
    42   22   23 ar
    43   22   61 1
    44   23   24 ar
    45   23   28 1
    46   24   25 ar
    47   24   62 1
    48   25   26 ar
    49   25   27 1
    50   26   63 1
    51   29   30 am
    52   29   64 1
    53   30   31 2
    54   30   32 1
    55   32   33 1
    56   32   38 1
    57   32   34 1
    58   34   35 1
    59   34   65 1
    60   34   66 1
    61   35   36 2
    62   35   37 am
    63   37   38 1
    64   37   39 1
    65   38   67 1
    66   38   68 1
    67   39   40 1
    68   39   69 1
    69   39   70 1
    70   40   45 ar
    71   40   41 ar
    72   41   42 ar
    73   41   71 1
    74   42   43 ar
    75   42   72 1
    76   43   44 ar
    77   43   73 1
    78   44   45 ar
    79   45   74 1
    80   46   75 1
@<TRIPOS>MOLECULE
CHEMBL522803
   78    81     0     0     0
SMALL
USER_CHARGES

@<TRIPOS>ATOM
      1 C1         -2.6526   -2.9501   -9.9237 C.3       1 <0>        -0.1503
      2 C2         -2.2681   -4.0223   -8.9022 C.3       1 <0>        -0.1200
      3 C3         -1.3551   -3.4093   -7.8385 C.3       1 <0>        -0.1358
      4 C4         -0.9706   -4.4815   -6.8170 C.3       1 <0>         0.1220
      5 N1         -0.0964   -3.8945   -5.7985 N.am      1 <0>        -0.6210
      6 C5          1.3674   -3.8450   -5.8923 C.3       1 <0>         0.1067
      7 C6          1.8111   -2.7870   -4.8578 C.3       1 <0>        -0.1236
      8 C7          0.6401   -2.8223   -3.8486 C.3       1 <0>        -0.1142
      9 H1          0.8635   -3.5051   -3.0288 H         1 <0>         0.1221
     10 C8         -0.5323   -3.3270   -4.6606 C.2       1 <0>         0.5165
     11 O1         -1.6960   -3.2352   -4.3315 O.2       1 <0>        -0.5087
     12 C9          0.3535   -1.4186   -3.3116 C.3       1 <0>        -0.1121
     13 C10        -0.6965   -1.5016   -2.2019 C.3       1 <0>        -0.1602
     14 C11         1.9326   -1.4270   -5.4955 C.2       1 <0>         0.5300
     15 O2          2.9540   -0.7858   -5.3665 O.2       1 <0>        -0.5118
     16 N2          0.9063   -0.9232   -6.2092 N.am      1 <0>        -0.7229
     17 C12         1.0244    0.3988   -6.8292 C.3       1 <0>         0.1221
     18 H2          1.6155    1.0504   -6.1856 H         1 <0>         0.1139
     19 C13         1.7125    0.2648   -8.1892 C.3       1 <0>        -0.1025
     20 C14         3.1287   -0.2106   -7.9909 C.ar      1 <0>        -0.0039
     21 C15         4.1475    0.7074   -7.8189 C.ar      1 <0>        -0.1468
     22 C16         5.4493    0.2717   -7.6372 C.ar      1 <0>         0.1402
     23 C17         5.7300   -1.0837   -7.6273 C.ar      1 <0>        -0.1928
     24 C18         4.7088   -2.0021   -7.7992 C.ar      1 <0>         0.1368
     25 C19         3.4070   -1.5643   -7.9757 C.ar      1 <0>        -0.1607
     26 F1          4.9813   -3.3253   -7.7898 F         1 <0>        -0.1335
     27 F2          6.4451    1.1693   -7.4699 F         1 <0>        -0.1320
     28 C20        -0.3699    0.9991   -7.0200 C.3       1 <0>         0.1131
     29 H3         -0.8936    1.0125   -6.0642 H         1 <0>         0.1076
     30 C21        -0.2416    2.4281   -7.5514 C.3       1 <0>         0.0066
     31 H4          0.2916    2.4324   -8.5021 H         1 <0>         0.1301
     32 C22        -1.6092    3.0554   -7.7115 C.2       1 <0>         0.4981
     33 O3         -2.5818    2.5197   -8.1992 O.2       1 <0>        -0.4902
     34 N3         -1.5645    4.3105   -7.2201 N.am      1 <0>        -0.6395
     35 C23        -0.2119    4.5981   -6.7271 C.3       1 <0>         0.2531
     36 N4          0.4567    3.2853   -6.5640 N.3       1 <0>        -0.6374
     37 C24        -2.6928    5.2442   -7.1845 C.3       1 <0>         0.1742
     38 C25        -3.4438    5.0754   -5.8889 C.ar      1 <0>        -0.1172
     39 C26        -4.4838    4.1686   -5.8060 C.ar      1 <0>        -0.0957
     40 C27        -5.1727    4.0138   -4.6176 C.ar      1 <0>        -0.1203
     41 C28        -4.8213    4.7654   -3.5119 C.ar      1 <0>        -0.1122
     42 C29        -3.7807    5.6716   -3.5946 C.ar      1 <0>        -0.1227
     43 C30        -3.0890    5.8234   -4.7818 C.ar      1 <0>        -0.1062
     44 O4         -1.1054    0.2074   -7.9551 O.3       1 <0>        -0.5290
     45 H5         -3.1768   -2.1387   -9.4188 H         1 <0>         0.0589
     46 H6         -1.7519   -2.5609  -10.3984 H         1 <0>         0.0521
     47 H7         -3.3030   -3.3868  -10.6815 H         1 <0>         0.0529
     48 H8         -3.1688   -4.4115   -8.4275 H         1 <0>         0.0631
     49 H9         -1.7438   -4.8338   -9.4071 H         1 <0>         0.0609
     50 H10        -0.4544   -3.0201   -8.3132 H         1 <0>         0.0620
     51 H11        -1.8793   -2.5979   -7.3336 H         1 <0>         0.0730
     52 H12        -1.8713   -4.8707   -6.3423 H         1 <0>         0.0855
     53 H13        -0.4464   -5.2930   -7.3219 H         1 <0>         0.0805
     54 H14         1.7943   -4.8169   -5.6446 H         1 <0>         0.0888
     55 H15         1.6711   -3.5431   -6.8946 H         1 <0>         0.0828
     56 H16         2.7468   -3.0771   -4.3799 H         1 <0>         0.1327
     57 H17         1.2716   -0.9881   -2.9116 H         1 <0>         0.0749
     58 H18        -0.0207   -0.7899   -4.1195 H         1 <0>         0.0681
     59 H19        -1.6146   -1.9321   -2.6018 H         1 <0>         0.0771
     60 H20        -0.3223   -2.1304   -1.3939 H         1 <0>         0.0540
     61 H21        -0.9007   -0.5016   -1.8193 H         1 <0>         0.0546
     62 H22         0.0894   -1.4361   -6.3124 H         1 <0>         0.4058
     63 H23         1.1698   -0.4555   -8.8015 H         1 <0>         0.0841
     64 H24         1.7209    1.2333   -8.6891 H         1 <0>         0.0955
     65 H25         3.9283    1.7648   -7.8266 H         1 <0>         0.1407
     66 H26         6.7451   -1.4243   -7.4860 H         1 <0>         0.1443
     67 H27         2.6094   -2.2808   -8.1054 H         1 <0>         0.1299
     68 H28         0.3300    5.2055   -7.4520 H         1 <0>         0.0974
     69 H29        -0.2642    5.1147   -5.7687 H         1 <0>         0.0858
     70 H30         0.3340    2.9314   -5.6271 H         1 <0>         0.3495
     71 H31        -2.3211    6.2662   -7.2585 H         1 <0>         0.0916
     72 H32        -3.3607    5.0391   -8.0210 H         1 <0>         0.0925
     73 H33        -4.7584    3.5814   -6.6698 H         1 <0>         0.1245
     74 H34        -5.9858    3.3058   -4.5530 H         1 <0>         0.1234
     75 H35        -5.3600    4.6450   -2.5837 H         1 <0>         0.1231
     76 H36        -3.5063    6.2591   -2.7309 H         1 <0>         0.1234
     77 H37        -2.2736    6.5286   -4.8453 H         1 <0>         0.1206
     78 H38        -0.6969    0.1510   -8.8298 H         1 <0>         0.3758
@<TRIPOS>BOND
     1    1    2 1
     2    1   45 1
     3    1   46 1
     4    1   47 1
     5    2    3 1
     6    2   48 1
     7    2   49 1
     8    3    4 1
     9    3   50 1
    10    3   51 1
    11    4    5 1
    12    4   52 1
    13    4   53 1
    14    5   10 am
    15    5    6 1
    16    6    7 1
    17    6   54 1
    18    6   55 1
    19    7    8 1
    20    7   14 1
    21    7   56 1
    22    8    9 1
    23    8   10 1
    24    8   12 1
    25   10   11 2
    26   12   13 1
    27   12   57 1
    28   12   58 1
    29   13   59 1
    30   13   60 1
    31   13   61 1
    32   14   15 2
    33   14   16 am
    34   16   17 1
    35   16   62 1
    36   17   18 1
    37   17   19 1
    38   17   28 1
    39   19   20 1
    40   19   63 1
    41   19   64 1
    42   20   25 ar
    43   20   21 ar
    44   21   22 ar
    45   21   65 1
    46   22   23 ar
    47   22   27 1
    48   23   24 ar
    49   23   66 1
    50   24   25 ar
    51   24   26 1
    52   25   67 1
    53   28   29 1
    54   28   30 1
    55   28   44 1
    56   30   31 1
    57   30   36 1
    58   30   32 1
    59   32   33 2
    60   32   34 am
    61   34   35 1
    62   34   37 1
    63   35   36 1
    64   35   68 1
    65   35   69 1
    66   36   70 1
    67   37   38 1
    68   37   71 1
    69   37   72 1
    70   38   43 ar
    71   38   39 ar
    72   39   40 ar
    73   39   73 1
    74   40   41 ar
    75   40   74 1
    76   41   42 ar
    77   41   75 1
    78   42   43 ar
    79   42   76 1
    80   43   77 1
    81   44   78 1
@<TRIPOS>MOLECULE
CHEMBL522803__1
   78    81     0     0     0
SMALL
USER_CHARGES

@<TRIPOS>ATOM
      1 C1         -0.0187    1.5258    0.0104 C.3       1 <0>        -0.1524
      2 C2          0.0021   -0.0041    0.0020 C.3       1 <0>        -0.1224
      3 C3          0.7182   -0.4975   -1.2568 C.3       1 <0>        -0.1359
      4 C4          0.7390   -2.0273   -1.2652 C.3       1 <0>         0.1252
      5 N1          1.4247   -2.4998   -2.4705 N.am      1 <0>        -0.6181
      6 C5          0.7582   -2.7724   -3.7493 C.3       1 <0>         0.1122
      7 C6          1.8876   -2.8119   -4.8026 C.3       1 <0>        -0.1245
      8 C7          3.1094   -3.2044   -3.9400 C.3       1 <0>        -0.1025
      9 H1          3.2562   -4.2843   -3.9554 H         1 <0>         0.1234
     10 C8          2.7460   -2.7338   -2.5489 C.2       1 <0>         0.5243
     11 O1          3.5321   -2.5911   -1.6364 O.2       1 <0>        -0.5146
     12 C9          4.3670   -2.4872   -4.4352 C.3       1 <0>        -0.0990
     13 C10         5.5811   -2.9850   -3.6484 C.3       1 <0>        -0.1614
     14 C11         1.6101   -3.8573   -5.8519 C.2       1 <0>         0.5270
     15 O2          2.3766   -4.7854   -6.0009 O.2       1 <0>        -0.5065
     16 N2          0.5102   -3.7610   -6.6248 N.am      1 <0>        -0.7227
     17 C12         0.2405   -4.7773   -7.6449 C.3       1 <0>         0.1238
     18 H2          1.1820   -5.1211   -8.0732 H         1 <0>         0.1140
     19 C13        -0.4911   -5.9595   -7.0061 C.3       1 <0>        -0.1029
     20 C14         0.4150   -6.6296   -6.0056 C.ar      1 <0>        -0.0049
     21 C15         1.2500   -7.6547   -6.4082 C.ar      1 <0>        -0.1471
     22 C16         2.0826   -8.2715   -5.4896 C.ar      1 <0>         0.1409
     23 C17         2.0788   -7.8607   -4.1678 C.ar      1 <0>        -0.1934
     24 C18         1.2425   -6.8336   -3.7658 C.ar      1 <0>         0.1361
     25 C19         0.4145   -6.2148   -4.6872 C.ar      1 <0>        -0.1619
     26 F1          1.2378   -6.4315   -2.4760 F         1 <0>        -0.1325
     27 F2          2.8980   -9.2741   -5.8833 F         1 <0>        -0.1317
     28 C20        -0.6313   -4.1738   -8.7480 C.3       1 <0>         0.1137
     29 H3         -0.1502   -3.2789   -9.1426 H         1 <0>         0.1095
     30 C21        -0.8098   -5.1952   -9.8731 C.3       1 <0>         0.0056
     31 H4         -1.2790   -6.1017   -9.4909 H         1 <0>         0.1306
     32 C22        -1.6379   -4.6054  -10.9937 C.2       1 <0>         0.4979
     33 O3         -2.6550   -3.9588  -10.8584 O.2       1 <0>        -0.4920
     34 N3         -1.0544   -4.9195  -12.1681 N.am      1 <0>        -0.6392
     35 C23         0.1515   -5.7191  -11.9202 C.3       1 <0>         0.2529
     36 N4          0.4983   -5.5133  -10.4938 N.3       1 <0>        -0.6374
     37 C24        -1.5487   -4.5241  -13.4893 C.3       1 <0>         0.1737
     38 C25        -0.9436   -3.1992  -13.8761 C.ar      1 <0>        -0.1170
     39 C26        -1.5820   -2.0217  -13.5343 C.ar      1 <0>        -0.0962
     40 C27        -1.0270   -0.8064  -13.8891 C.ar      1 <0>        -0.1210
     41 C28         0.1666   -0.7686  -14.5853 C.ar      1 <0>        -0.1125
     42 C29         0.8055   -1.9461  -14.9264 C.ar      1 <0>        -0.1226
     43 C30         0.2526   -3.1613  -14.5678 C.ar      1 <0>        -0.1059
     44 O4         -1.9097   -3.8296   -8.2100 O.3       1 <0>        -0.5332
     45 H5          1.0039    1.9031    0.0027 H         1 <0>         0.0542
     46 H6         -0.5459    1.8868   -0.8726 H         1 <0>         0.0534
     47 H7         -0.5289    1.8773    0.9072 H         1 <0>         0.0558
     48 H8          0.5293   -0.3651    0.8851 H         1 <0>         0.0645
     49 H9         -1.0205   -0.3814    0.0098 H         1 <0>         0.0632
     50 H10         0.1910   -0.1364   -2.1398 H         1 <0>         0.0638
     51 H11         1.7408   -0.1202   -1.2645 H         1 <0>         0.0669
     52 H12         1.2661   -2.3884   -0.3821 H         1 <0>         0.0847
     53 H13        -0.2836   -2.4046   -1.2575 H         1 <0>         0.0791
     54 H14         0.2452   -3.7333   -3.7101 H         1 <0>         0.0740
     55 H15         0.0516   -1.9762   -3.9837 H         1 <0>         0.0875
     56 H16         2.0304   -1.8321   -5.2584 H         1 <0>         0.1197
     57 H17         4.5106   -2.6959   -5.4953 H         1 <0>         0.0719
     58 H18         4.2544   -1.4131   -4.2883 H         1 <0>         0.0620
     59 H19         5.4376   -2.7764   -2.5883 H         1 <0>         0.0767
     60 H20         5.6938   -4.0592   -3.7953 H         1 <0>         0.0532
     61 H21         6.4771   -2.4742   -4.0012 H         1 <0>         0.0537
     62 H22        -0.1028   -3.0187   -6.5057 H         1 <0>         0.4065
     63 H23        -1.3883   -5.6017   -6.5012 H         1 <0>         0.0858
     64 H24        -0.7703   -6.6749   -7.7796 H         1 <0>         0.0954
     65 H25         1.2528   -7.9751   -7.4396 H         1 <0>         0.1409
     66 H26         2.7276   -8.3414   -3.4507 H         1 <0>         0.1440
     67 H27        -0.2350   -5.4104   -4.3747 H         1 <0>         0.1312
     68 H28        -0.0529   -6.7735  -12.1062 H         1 <0>         0.0977
     69 H29         0.9663   -5.3765  -12.5580 H         1 <0>         0.0861
     70 H30         1.1455   -4.7467  -10.3864 H         1 <0>         0.3497
     71 H31        -1.2684   -5.2796  -14.2232 H         1 <0>         0.0920
     72 H32        -2.6344   -4.4325  -13.4586 H         1 <0>         0.0929
     73 H33        -2.5145   -2.0512  -12.9904 H         1 <0>         0.1248
     74 H34        -1.5261    0.1136  -13.6227 H         1 <0>         0.1234
     75 H35         0.5999    0.1809  -14.8632 H         1 <0>         0.1231
     76 H36         1.7379   -1.9165  -15.4706 H         1 <0>         0.1237
     77 H37         0.7536   -4.0811  -14.8310 H         1 <0>         0.1210
     78 H38        -2.3957   -4.5794   -7.8403 H         1 <0>         0.3784
@<TRIPOS>BOND
     1    1    2 1
     2    1   45 1
     3    1   46 1
     4    1   47 1
     5    2    3 1
     6    2   48 1
     7    2   49 1
     8    3    4 1
     9    3   50 1
    10    3   51 1
    11    4    5 1
    12    4   52 1
    13    4   53 1
    14    5   10 am
    15    5    6 1
    16    6    7 1
    17    6   54 1
    18    6   55 1
    19    7    8 1
    20    7   14 1
    21    7   56 1
    22    8    9 1
    23    8   10 1
    24    8   12 1
    25   10   11 2
    26   12   13 1
    27   12   57 1
    28   12   58 1
    29   13   59 1
    30   13   60 1
    31   13   61 1
    32   14   15 2
    33   14   16 am
    34   16   17 1
    35   16   62 1
    36   17   18 1
    37   17   19 1
    38   17   28 1
    39   19   20 1
    40   19   63 1
    41   19   64 1
    42   20   25 ar
    43   20   21 ar
    44   21   22 ar
    45   21   65 1
    46   22   23 ar
    47   22   27 1
    48   23   24 ar
    49   23   66 1
    50   24   25 ar
    51   24   26 1
    52   25   67 1
    53   28   29 1
    54   28   30 1
    55   28   44 1
    56   30   31 1
    57   30   36 1
    58   30   32 1
    59   32   33 2
    60   32   34 am
    61   34   35 1
    62   34   37 1
    63   35   36 1
    64   35   68 1
    65   35   69 1
    66   36   70 1
    67   37   38 1
    68   37   71 1
    69   37   72 1
    70   38   43 ar
    71   38   39 ar
    72   39   40 ar
    73   39   73 1
    74   40   41 ar
    75   40   74 1
    76   41   42 ar
    77   41   75 1
    78   42   43 ar
    79   42   76 1
    80   43   77 1
    81   44   78 1
@<TRIPOS>MOLECULE
CHEMBL254069
   82    86     0     0     0
SMALL
USER_CHARGES

@<TRIPOS>ATOM
      1 C1         -0.0614    1.5273   -0.0257 C.3       1 <0>        -0.1680
      2 C2          0.0226    0.0005    0.0263 C.3       1 <0>         0.1212
      3 N1          0.7924   -0.4856   -1.1214 N.pl3     1 <0>        -0.7457
      4 C3          1.0051   -1.8560   -1.2899 C.ar      1 <0>         0.2369
      5 C4          0.4821   -2.7563   -0.3729 C.ar      1 <0>        -0.1914
      6 C5          0.6946   -4.1243   -0.5422 C.ar      1 <0>        -0.0596
      7 C6          1.4328   -4.5826   -1.6337 C.ar      1 <0>        -0.1455
      8 C7          1.9528   -3.6771   -2.5466 C.ar      1 <0>         0.2208
      9 C8          1.7348   -2.3159   -2.3779 C.ar      1 <0>        -0.2003
     10 N2          2.6925   -4.1351   -3.6396 N.pl3     1 <0>        -0.9356
     11 C9          3.6905   -3.2757   -4.2937 C.3       1 <0>         0.1002
     12 C10         3.3473   -3.1333   -5.7753 C.3       1 <0>        -0.1587
     13 C11         3.4548   -4.4802   -6.4862 C.3       1 <0>        -0.1152
     14 C12         2.3122   -5.3972   -6.0348 C.3       1 <0>        -0.6080
     15 S1          2.4767   -5.6732   -4.2383 S.o2      1 <0>         2.5830
     16 O1          3.6891   -6.3555   -3.9485 O.2       1 <0>        -0.9374
     17 O2          1.2423   -6.1133   -3.6890 O.2       1 <0>        -0.9371
     18 C13         0.1391   -5.0868    0.4335 C.2       1 <0>         0.5637
     19 O3          0.3251   -6.2787    0.2847 O.2       1 <0>        -0.4955
     20 N3         -0.5734   -4.6424    1.4876 N.am      1 <0>        -0.7250
     21 C14        -1.1238   -5.5959    2.4541 C.3       1 <0>         0.1270
     22 H1         -1.4235   -6.5066    1.9357 H         1 <0>         0.1101
     23 C15        -0.0602   -5.9317    3.5015 C.3       1 <0>        -0.1008
     24 C16         1.0866   -6.6517    2.8399 C.ar      1 <0>        -0.0801
     25 C17         1.0722   -8.0304    2.7410 C.ar      1 <0>        -0.1069
     26 C18         2.1241   -8.6908    2.1341 C.ar      1 <0>        -0.1113
     27 C19         3.1901   -7.9725    1.6257 C.ar      1 <0>        -0.1100
     28 C20         3.2040   -6.5937    1.7238 C.ar      1 <0>        -0.1088
     29 C21         2.1501   -5.9330    2.3268 C.ar      1 <0>        -0.1052
     30 C22        -2.3414   -4.9774    3.1440 C.3       1 <0>         0.0761
     31 H2         -3.0616   -4.6570    2.3912 H         1 <0>         0.1333
     32 C23        -2.9902   -6.0161    4.0611 C.3       1 <0>        -0.0489
     33 N4         -4.2258   -5.4625    4.6309 N.4       1 <0>        -0.5006
     34 C24        -4.9117   -6.4994    5.4134 C.3       1 <0>         0.0812
     35 H3         -5.0420   -7.4004    4.8141 H         1 <0>         0.1521
     36 C25        -4.1132   -6.8193    6.6949 C.3       1 <0>        -0.1348
     37 C26        -5.2312   -7.1182    7.7161 C.3       1 <0>        -0.0877
     38 C27        -6.4358   -6.3461    7.2220 C.ar      1 <0>        -0.0638
     39 C28        -6.2533   -5.9914    5.8964 C.ar      1 <0>        -0.1706
     40 C29        -7.2346   -5.2764    5.2311 C.ar      1 <0>        -0.0928
     41 C30        -8.3968   -4.9162    5.8854 C.ar      1 <0>        -0.1119
     42 C31        -8.5816   -5.2707    7.2084 C.ar      1 <0>        -0.0823
     43 C32        -7.5999   -5.9836    7.8779 C.ar      1 <0>        -0.1013
     44 O4         -1.9284   -3.8498    3.9185 O.3       1 <0>        -0.5494
     45 H4          0.9438    1.9478    0.0066 H         1 <0>         0.0638
     46 H5         -0.5535    1.8329   -0.9490 H         1 <0>         0.0633
     47 H6         -0.6341    1.8890    0.8282 H         1 <0>         0.0743
     48 H7          0.5148   -0.3050    0.9496 H         1 <0>         0.0594
     49 H8         -0.9825   -0.4199   -0.0060 H         1 <0>         0.0582
     50 H9          1.1544    0.1440   -1.7644 H         1 <0>         0.4028
     51 H10        -0.0885   -2.3982    0.4711 H         1 <0>         0.1227
     52 H11         1.5994   -5.6413   -1.7675 H         1 <0>         0.1463
     53 H12         2.1373   -1.6132   -3.0925 H         1 <0>         0.1325
     54 H13         3.6869   -2.2922   -3.8237 H         1 <0>         0.1017
     55 H14         4.6788   -3.7237   -4.1911 H         1 <0>         0.0909
     56 H15         2.3294   -2.7558   -5.8733 H         1 <0>         0.0814
     57 H16         4.0373   -2.4273   -6.2374 H         1 <0>         0.1008
     58 H17         3.3927   -4.3273   -7.5637 H         1 <0>         0.0951
     59 H18         4.4103   -4.9441   -6.2413 H         1 <0>         0.0867
     60 H19         1.3543   -4.9237   -6.2502 H         1 <0>         0.1382
     61 H20         2.3773   -6.3506   -6.5591 H         1 <0>         0.1394
     62 H21        -0.7219   -3.6912    1.6064 H         1 <0>         0.4051
     63 H22         0.3036   -5.0112    3.9580 H         1 <0>         0.0815
     64 H23        -0.4957   -6.5708    4.2696 H         1 <0>         0.0785
     65 H24         0.2394   -8.5917    3.1382 H         1 <0>         0.1116
     66 H25         2.1132   -9.7681    2.0575 H         1 <0>         0.1195
     67 H26         4.0123   -8.4885    1.1522 H         1 <0>         0.1206
     68 H27         4.0370   -6.0325    1.3268 H         1 <0>         0.1183
     69 H28         2.1592   -4.8555    2.4001 H         1 <0>         0.1108
     70 H29        -3.2247   -6.9122    3.4865 H         1 <0>         0.1486
     71 H30        -2.3011   -6.2708    4.8663 H         1 <0>         0.1425
     72 H31        -3.9999   -4.6830    5.2304 H         1 <0>         0.4319
     73 H32        -3.4788   -7.6934    6.5480 H         1 <0>         0.1098
     74 H33        -3.5222   -5.9586    7.0081 H         1 <0>         0.0953
     75 H34        -5.4489   -8.1860    7.7369 H         1 <0>         0.1009
     76 H35        -4.9403   -6.7713    8.7076 H         1 <0>         0.0977
     77 H36        -7.0910   -4.9991    4.1972 H         1 <0>         0.1243
     78 H37        -9.1600   -4.3578    5.3637 H         1 <0>         0.1382
     79 H38        -9.4895   -4.9898    7.7215 H         1 <0>         0.1387
     80 H39        -7.7440   -6.2609    8.9117 H         1 <0>         0.1354
     81 H40        -1.2858   -4.0614    4.6095 H         1 <0>         0.3911
     82 H41        -4.8293   -5.1495    3.8853 H         1 <0>         0.4273
@<TRIPOS>BOND
     1    1    2 1
     2    1   45 1
     3    1   46 1
     4    1   47 1
     5    2    3 1
     6    2   48 1
     7    2   49 1
     8    3    4 1
     9    3   50 1
    10    4    9 ar
    11    4    5 ar
    12    5    6 ar
    13    5   51 1
    14    6    7 ar
    15    6   18 1
    16    7    8 ar
    17    7   52 1
    18    8    9 ar
    19    8   10 1
    20    9   53 1
    21   10   15 1
    22   10   11 1
    23   11   12 1
    24   11   54 1
    25   11   55 1
    26   12   13 1
    27   12   56 1
    28   12   57 1
    29   13   14 1
    30   13   58 1
    31   13   59 1
    32   14   15 1
    33   14   60 1
    34   14   61 1
    35   15   16 2
    36   15   17 2
    37   18   19 2
    38   18   20 am
    39   20   21 1
    40   20   62 1
    41   21   22 1
    42   21   23 1
    43   21   30 1
    44   23   24 1
    45   23   63 1
    46   23   64 1
    47   24   29 ar
    48   24   25 ar
    49   25   26 ar
    50   25   65 1
    51   26   27 ar
    52   26   66 1
    53   27   28 ar
    54   27   67 1
    55   28   29 ar
    56   28   68 1
    57   29   69 1
    58   30   31 1
    59   30   32 1
    60   30   44 1
    61   32   33 1
    62   32   70 1
    63   32   71 1
    64   33   34 1
    65   33   72 1
    66   33   82 1
    67   34   35 1
    68   34   39 1
    69   34   36 1
    70   36   37 1
    71   36   73 1
    72   36   74 1
    73   37   38 1
    74   37   75 1
    75   37   76 1
    76   38   43 ar
    77   38   39 ar
    78   39   40 ar
    79   40   41 ar
    80   40   77 1
    81   41   42 ar
    82   41   78 1
    83   42   43 ar
    84   42   79 1
    85   43   80 1
    86   44   81 1
@<TRIPOS>MOLECULE
CHEMBL402070
   74    78     0     0     0
SMALL
USER_CHARGES

@<TRIPOS>ATOM
      1 C1         -0.0167    1.3781    0.0096 C.ar      1 <0>        -0.1026
      2 C2          1.1709    2.0855    0.0021 C.ar      1 <0>        -0.1213
      3 C3          2.3773    1.4107   -0.0130 C.ar      1 <0>        -0.0990
      4 C4          2.3960    0.0285   -0.0201 C.ar      1 <0>        -0.1092
      5 C5          1.2084   -0.6789   -0.0117 C.ar      1 <0>        -0.0952
      6 C6          0.0021   -0.0041    0.0020 C.ar      1 <0>        -0.1195
      7 C7          3.7112   -0.7071   -0.0376 C.3       1 <0>         0.1019
      8 O1          4.1410   -0.9464    1.3041 O.3       1 <0>        -0.3587
      9 C8          5.3853   -1.6423    1.4004 C.3       1 <0>         0.0683
     10 H1          5.5221   -2.2929    0.5366 H         1 <0>         0.1093
     11 C9          5.4392   -2.4669    2.7070 C.3       1 <0>        -0.1282
     12 C10         6.9057   -2.2833    3.1723 C.3       1 <0>        -0.0084
     13 H2          7.5676   -2.9623    2.6348 H         1 <0>         0.1551
     14 N1          7.2010   -0.8719    2.8163 N.4       1 <0>        -0.5102
     15 C11         6.5508   -0.6413    1.5055 C.3       1 <0>        -0.0340
     16 C12         7.0241   -2.4993    4.6823 C.3       1 <0>         0.0944
     17 H3          6.3960   -1.7766    5.2031 H         1 <0>         0.1336
     18 C13         8.4807   -2.3119    5.1116 C.3       1 <0>         0.1077
     19 H4          8.8332   -1.3341    4.7834 H         1 <0>         0.0972
     20 C14         9.3439   -3.4044    4.4775 C.3       1 <0>        -0.1094
     21 C15        10.7938   -3.1493    4.7995 C.ar      1 <0>        -0.0186
     22 C16        11.5613   -2.3683    3.9563 C.ar      1 <0>        -0.1584
     23 C17        12.8938   -2.1335    4.2510 C.ar      1 <0>         0.1463
     24 C18        13.4569   -2.6810    5.3908 C.ar      1 <0>        -0.1866
     25 C19        12.6871   -3.4627    6.2348 C.ar      1 <0>         0.1474
     26 C20        11.3535   -3.6918    5.9408 C.ar      1 <0>        -0.1608
     27 F1         13.2354   -3.9977    7.3477 F         1 <0>        -0.1242
     28 F2         13.6441   -1.3707    3.4261 F         1 <0>        -0.1279
     29 N2          8.5750   -2.4005    6.5709 N.am      1 <0>        -0.7223
     30 C21         9.5897   -1.7945    7.2186 C.2       1 <0>         0.5322
     31 O2         10.4247   -1.1758    6.5934 O.2       1 <0>        -0.5085
     32 C22         9.6867   -1.8856    8.7197 C.3       1 <0>        -0.1263
     33 H5          8.7965   -1.4701    9.1921 H         1 <0>         0.1238
     34 C23         9.9225   -3.3455    9.1714 C.3       1 <0>        -0.1479
     35 C24        10.8652   -3.2221   10.3481 C.2       1 <0>         0.5194
     36 O3         11.0805   -4.0966   11.1604 O.2       1 <0>        -0.5131
     37 N3         11.4300   -2.0024   10.3620 N.am      1 <0>        -0.6144
     38 C25        10.9637   -1.1854    9.2347 C.3       1 <0>         0.1191
     39 C26        12.3874   -1.5463   11.3728 C.3       1 <0>         0.1576
     40 C27        13.8089   -1.8816   10.9169 C.3       1 <0>        -0.1775
     41 C28        14.6097   -2.8683   11.7689 C.3       1 <0>        -0.1705
     42 C29        14.9656   -1.3804   11.7839 C.3       1 <0>        -0.1727
     43 O4          6.5979   -3.8236    5.0090 O.3       1 <0>        -0.5201
     44 H6         -0.9591    1.9053    0.0259 H         1 <0>         0.1285
     45 H7          1.1563    3.1654    0.0076 H         1 <0>         0.1277
     46 H8          3.3051    1.9634   -0.0196 H         1 <0>         0.1206
     47 H9          1.2231   -1.7588   -0.0176 H         1 <0>         0.1241
     48 H10        -0.9258   -0.5567    0.0082 H         1 <0>         0.1288
     49 H11         3.5884   -1.6586   -0.5549 H         1 <0>         0.0709
     50 H12         4.4573   -0.1052   -0.5563 H         1 <0>         0.0654
     51 H13         4.7468   -2.0640    3.4462 H         1 <0>         0.1163
     52 H14         5.2259   -3.5173    2.5093 H         1 <0>         0.1283
     53 H15         6.8155   -0.2499    3.5110 H         1 <0>         0.4342
     54 H16         7.2640   -0.8159    0.6999 H         1 <0>         0.1429
     55 H17         6.1701    0.3787    1.4534 H         1 <0>         0.1456
     56 H18         9.0492   -4.3761    4.8739 H         1 <0>         0.0987
     57 H19         9.2048   -3.3957    3.3964 H         1 <0>         0.0882
     58 H20        11.1218   -1.9412    3.0670 H         1 <0>         0.1320
     59 H21        14.4962   -2.4987    5.6212 H         1 <0>         0.1495
     60 H22        10.7515   -4.2980    6.6015 H         1 <0>         0.1352
     61 H23         7.9071   -2.8953    7.0709 H         1 <0>         0.4149
     62 H24         8.9840   -3.8053    9.4811 H         1 <0>         0.1135
     63 H25        10.3851   -3.9226    8.3707 H         1 <0>         0.1040
     64 H26        11.7207   -1.1574    8.4509 H         1 <0>         0.0882
     65 H27        10.7305   -0.1753    9.5712 H         1 <0>         0.0872
     66 H28        12.2923   -0.4683   11.5029 H         1 <0>         0.0857
     67 H29        12.1820   -2.0461   12.3194 H         1 <0>         0.0879
     68 H30        13.9629   -1.9072    9.8381 H         1 <0>         0.1037
     69 H31        14.1239   -3.2786   12.6542 H         1 <0>         0.0978
     70 H32        15.2908   -3.5434   11.2506 H         1 <0>         0.0936
     71 H33        15.8807   -1.0765   11.2756 H         1 <0>         0.0968
     72 H34        14.7138   -0.8117   12.6791 H         1 <0>         0.0974
     73 H35         7.1137   -4.5199    4.5798 H         1 <0>         0.3909
     74 H36         8.1975   -0.7339    2.7385 H         1 <0>         0.4335
@<TRIPOS>BOND
     1    1    6 ar
     2    1    2 ar
     3    1   44 1
     4    2    3 ar
     5    2   45 1
     6    3    4 ar
     7    3   46 1
     8    4    5 ar
     9    4    7 1
    10    5    6 ar
    11    5   47 1
    12    6   48 1
    13    7    8 1
    14    7   49 1
    15    7   50 1
    16    8    9 1
    17    9   10 1
    18    9   15 1
    19    9   11 1
    20   11   12 1
    21   11   51 1
    22   11   52 1
    23   12   13 1
    24   12   14 1
    25   12   16 1
    26   14   15 1
    27   14   53 1
    28   14   74 1
    29   15   54 1
    30   15   55 1
    31   16   17 1
    32   16   18 1
    33   16   43 1
    34   18   19 1
    35   18   20 1
    36   18   29 1
    37   20   21 1
    38   20   56 1
    39   20   57 1
    40   21   26 ar
    41   21   22 ar
    42   22   23 ar
    43   22   58 1
    44   23   24 ar
    45   23   28 1
    46   24   25 ar
    47   24   59 1
    48   25   26 ar
    49   25   27 1
    50   26   60 1
    51   29   30 am
    52   29   61 1
    53   30   31 2
    54   30   32 1
    55   32   33 1
    56   32   38 1
    57   32   34 1
    58   34   35 1
    59   34   62 1
    60   34   63 1
    61   35   36 2
    62   35   37 am
    63   37   38 1
    64   37   39 1
    65   38   64 1
    66   38   65 1
    67   39   40 1
    68   39   66 1
    69   39   67 1
    70   40   42 1
    71   40   41 1
    72   40   68 1
    73   41   42 1
    74   41   69 1
    75   41   70 1
    76   42   71 1
    77   42   72 1
    78   43   73 1
@<TRIPOS>MOLECULE
CHEMBL572313
   66    69     0     0     0
SMALL
USER_CHARGES

@<TRIPOS>ATOM
      1 C1         -0.7717    2.6205   -0.5107 C.3       1 <0>        -0.1822
      2 C2         -0.4355    1.1621   -0.6872 C.2       1 <0>         0.5116
      3 O1         -0.0533    0.5088    0.2605 O.2       1 <0>        -0.5313
      4 N1         -0.5595    0.5838   -1.8982 N.am      1 <0>        -0.7327
      5 C3         -0.2327   -0.8340   -2.0699 C.3       1 <0>         0.1322
      6 H1         -0.3932   -1.1206   -3.1092 H         1 <0>         0.1052
      7 C4          1.2325   -1.0684   -1.6966 C.3       1 <0>        -0.0988
      8 C5          2.1217   -0.3340   -2.6667 C.ar      1 <0>        -0.0284
      9 C6          2.5502   -0.9611   -3.8213 C.ar      1 <0>        -0.1647
     10 C7          3.3677   -0.2874   -4.7132 C.ar      1 <0>         0.1397
     11 C8          3.7552    1.0147   -4.4481 C.ar      1 <0>        -0.1924
     12 C9          3.3250    1.6419   -3.2916 C.ar      1 <0>         0.1390
     13 C10         2.5034    0.9680   -2.4038 C.ar      1 <0>        -0.1582
     14 F1          3.7025    2.9128   -3.0317 F         1 <0>        -0.1258
     15 F2          3.7872   -0.9010   -5.8413 F         1 <0>        -0.1256
     16 C11        -1.1312   -1.6778   -1.1635 C.3       1 <0>         0.0691
     17 H2         -0.9707   -1.3912   -0.1242 H         1 <0>         0.1466
     18 C12        -2.5963   -1.4434   -1.5368 C.3       1 <0>        -0.0570
     19 N2         -3.4631   -2.1593   -0.5912 N.4       1 <0>        -0.4927
     20 C13        -4.8660   -2.0019   -0.9973 C.3       1 <0>         0.0793
     21 C14        -5.2304   -0.5141   -1.0134 C.3       1 <0>        -0.1416
     22 C15        -5.1028    0.0469    0.4062 C.3       1 <0>        -0.1706
     23 C16        -5.9995   -0.7607    1.3482 C.3       1 <0>         0.0438
     24 O2         -5.6277   -2.1394    1.2921 O.3       1 <0>        -0.3691
     25 C17        -5.7719   -2.7303   -0.0011 C.3       1 <0>         0.0491
     26 C18        -5.0603   -2.5842   -2.3736 C.ar      1 <0>        -0.0991
     27 C19        -4.2271   -3.5935   -2.8206 C.ar      1 <0>        -0.1512
     28 C20        -4.4022   -4.1302   -4.0826 C.ar      1 <0>        -0.0646
     29 C21        -5.4108   -3.6598   -4.9009 C.ar      1 <0>        -0.1255
     30 C22        -6.2491   -2.6472   -4.4549 C.ar      1 <0>         0.1959
     31 C23        -6.0737   -2.1134   -3.1850 C.ar      1 <0>        -0.1004
     32 N3         -7.2735   -2.1677   -5.2830 N.pl3     1 <0>        -0.3402
     33 C24        -7.6190   -2.6663   -6.4915 C.2       1 <0>         0.0523
     34 C25        -8.6496   -1.9267   -6.9627 C.2       1 <0>        -0.2440
     35 C26        -8.9445   -0.9436   -6.0118 C.2       1 <0>         0.0750
     36 N4         -8.1245   -1.0909   -5.0024 N.2       1 <0>        -0.2955
     37 O3         -0.8124   -3.0607   -1.3309 O.3       1 <0>        -0.5410
     38 H3          0.1194    3.2227   -0.6874 H         1 <0>         0.1027
     39 H4         -1.5481    2.9030   -1.2217 H         1 <0>         0.0830
     40 H5         -1.1297    2.7905    0.5048 H         1 <0>         0.1000
     41 H6         -0.8652    1.1062   -2.6562 H         1 <0>         0.4115
     42 H7          1.4136   -0.6997   -0.6870 H         1 <0>         0.1086
     43 H8          1.4519   -2.1353   -1.7387 H         1 <0>         0.1020
     44 H9          2.2477   -1.9771   -4.0279 H         1 <0>         0.1431
     45 H10         4.3931    1.5408   -5.1430 H         1 <0>         0.1524
     46 H11         2.1640    1.4587   -1.5035 H         1 <0>         0.1359
     47 H12        -2.8158   -0.3766   -1.4947 H         1 <0>         0.1412
     48 H13        -2.7775   -1.8121   -2.5464 H         1 <0>         0.1409
     49 H14        -3.2215   -3.1390   -0.5889 H         1 <0>         0.4296
     50 H15        -4.5524    0.0201   -1.6790 H         1 <0>         0.0965
     51 H16        -6.2560   -0.3937   -1.3623 H         1 <0>         0.1179
     52 H17        -4.0666   -0.0285    0.7359 H         1 <0>         0.0706
     53 H18        -5.4134    1.0917    0.4142 H         1 <0>         0.1090
     54 H19        -5.8802   -0.3933    2.3675 H         1 <0>         0.1179
     55 H20        -7.0399   -0.6519    1.0419 H         1 <0>         0.0730
     56 H21        -6.8093   -2.6474   -0.3251 H         1 <0>         0.1034
     57 H22        -5.4886   -3.7818    0.0462 H         1 <0>         0.1233
     58 H23        -3.4378   -3.9629   -2.1826 H         1 <0>         0.1260
     59 H24        -3.7495   -4.9178   -4.4292 H         1 <0>         0.1491
     60 H25        -5.5469   -4.0792   -5.8868 H         1 <0>         0.1439
     61 H26        -6.7269   -1.3283   -2.8337 H         1 <0>         0.1495
     62 H27        -7.1553   -3.5039   -6.9913 H         1 <0>         0.1826
     63 H28        -9.1553   -2.0700   -7.9062 H         1 <0>         0.1628
     64 H29        -9.7187   -0.1951   -6.0943 H         1 <0>         0.1976
     65 H30        -0.9323   -3.3855   -2.2338 H         1 <0>         0.3859
     66 H31        -3.3364   -1.7795    0.3350 H         1 <0>         0.4341
@<TRIPOS>BOND
     1    1    2 1
     2    1   38 1
     3    1   39 1
     4    1   40 1
     5    2    3 2
     6    2    4 am
     7    4    5 1
     8    4   41 1
     9    5    6 1
    10    5    7 1
    11    5   16 1
    12    7    8 1
    13    7   42 1
    14    7   43 1
    15    8   13 ar
    16    8    9 ar
    17    9   10 ar
    18    9   44 1
    19   10   11 ar
    20   10   15 1
    21   11   12 ar
    22   11   45 1
    23   12   13 ar
    24   12   14 1
    25   13   46 1
    26   16   17 1
    27   16   18 1
    28   16   37 1
    29   18   19 1
    30   18   47 1
    31   18   48 1
    32   19   20 1
    33   19   49 1
    34   19   66 1
    35   20   25 1
    36   20   21 1
    37   20   26 1
    38   21   22 1
    39   21   50 1
    40   21   51 1
    41   22   23 1
    42   22   52 1
    43   22   53 1
    44   23   24 1
    45   23   54 1
    46   23   55 1
    47   24   25 1
    48   25   56 1
    49   25   57 1
    50   26   31 ar
    51   26   27 ar
    52   27   28 ar
    53   27   58 1
    54   28   29 ar
    55   28   59 1
    56   29   30 ar
    57   29   60 1
    58   30   31 ar
    59   30   32 1
    60   31   61 1
    61   32   36 1
    62   32   33 1
    63   33   34 2
    64   33   62 1
    65   34   35 1
    66   34   63 1
    67   35   36 2
    68   35   64 1
    69   37   65 1
@<TRIPOS>MOLECULE
CHEMBL572313__1
   66    69     0     0     0
SMALL
USER_CHARGES

@<TRIPOS>ATOM
      1 C1         -0.6758    2.5661   -0.4729 C.3       1 <0>        -0.1814
      2 C2         -0.3716    1.1051   -0.6824 C.2       1 <0>         0.5141
      3 O1          0.0140    0.4268    0.2461 O.2       1 <0>        -0.5325
      4 N1         -0.5281    0.5523   -1.9015 N.am      1 <0>        -0.7332
      5 C3         -0.2324   -0.8681   -2.1052 C.3       1 <0>         0.1325
      6 H1         -0.4166   -1.1319   -3.1466 H         1 <0>         0.1049
      7 C4          1.2341   -1.1379   -1.7624 C.3       1 <0>        -0.0987
      8 C5          2.1207   -0.4027   -2.7343 C.ar      1 <0>        -0.0282
      9 C6          2.5166   -1.0162   -3.9078 C.ar      1 <0>        -0.1648
     10 C7          3.3316   -0.3418   -4.8014 C.ar      1 <0>         0.1393
     11 C8          3.7493    0.9473   -4.5192 C.ar      1 <0>        -0.1924
     12 C9          3.3518    1.5609   -3.3439 C.ar      1 <0>         0.1391
     13 C10         2.5325    0.8864   -2.4542 C.ar      1 <0>        -0.1578
     14 F1          3.7587    2.8191   -3.0672 F         1 <0>        -0.1257
     15 F2          3.7191   -0.9420   -5.9481 F         1 <0>        -0.1259
     16 C11        -1.1315   -1.7113   -1.1988 C.3       1 <0>         0.0694
     17 H2         -0.9473   -1.4475   -0.1573 H         1 <0>         0.1472
     18 C12        -2.5979   -1.4414   -1.5415 C.3       1 <0>        -0.0568
     19 N2         -3.4621   -2.1581   -0.5941 N.4       1 <0>        -0.4926
     20 C13        -4.8660   -2.0019   -0.9973 C.3       1 <0>         0.0788
     21 C14        -5.7701   -2.7260    0.0050 C.3       1 <0>        -0.1353
     22 C15        -5.6169   -2.0699    1.3807 C.3       1 <0>        -0.1718
     23 C16        -5.9515   -0.5803    1.2671 C.3       1 <0>         0.0437
     24 O2         -5.0955    0.0262    0.2968 O.3       1 <0>        -0.3689
     25 C17        -5.2297   -0.5149   -1.0190 C.3       1 <0>         0.0439
     26 C18        -5.0637   -2.5888   -2.3712 C.ar      1 <0>        -0.0971
     27 C19        -4.2331   -3.6012   -2.8159 C.ar      1 <0>        -0.1508
     28 C20        -4.4114   -4.1421   -4.0758 C.ar      1 <0>        -0.0641
     29 C21        -5.4206   -3.6728   -4.8940 C.ar      1 <0>        -0.1261
     30 C22        -6.2562   -2.6570   -4.4502 C.ar      1 <0>         0.1977
     31 C23        -6.0777   -2.1191   -3.1825 C.ar      1 <0>        -0.1045
     32 N3         -7.2812   -2.1786   -5.2782 N.pl3     1 <0>        -0.3405
     33 C24        -7.6297   -2.6810   -6.4844 C.2       1 <0>         0.0522
     34 C25        -8.6598   -1.9412   -6.9564 C.2       1 <0>        -0.2438
     35 C26        -8.9512   -0.9541   -6.0085 C.2       1 <0>         0.0754
     36 N4         -8.1298   -1.0993   -5.0000 N.2       1 <0>        -0.2953
     37 O3         -0.8430   -3.0967   -1.3974 O.3       1 <0>        -0.5423
     38 H3          0.2238    3.1542   -0.6542 H         1 <0>         0.1015
     39 H4         -1.4587    2.8771   -1.1646 H         1 <0>         0.0836
     40 H5         -1.0126    2.7239    0.5517 H         1 <0>         0.1004
     41 H6         -0.8365    1.0948   -2.6441 H         1 <0>         0.4116
     42 H7          1.4401   -0.7920   -0.7495 H         1 <0>         0.1087
     43 H8          1.4317   -2.2078   -1.8281 H         1 <0>         0.1014
     44 H9          2.1905   -2.0220   -4.1278 H         1 <0>         0.1429
     45 H10         4.3852    1.4739   -5.2155 H         1 <0>         0.1522
     46 H11         2.2186    1.3665   -1.5391 H         1 <0>         0.1363
     47 H12        -2.7955   -0.3715   -1.4758 H         1 <0>         0.1437
     48 H13        -2.8039   -1.7874   -2.5545 H         1 <0>         0.1399
     49 H14        -3.2197   -3.1375   -0.5923 H         1 <0>         0.4279
     50 H15        -6.8077   -2.6524   -0.3205 H         1 <0>         0.1164
     51 H16        -5.4794   -3.7747    0.0668 H         1 <0>         0.0992
     52 H17        -6.2979   -2.5434    2.0879 H         1 <0>         0.1101
     53 H18        -4.5903   -2.1872    1.7279 H         1 <0>         0.0720
     54 H19        -6.9905   -0.4637    0.9589 H         1 <0>         0.0729
     55 H20        -5.8029   -0.0996    2.2341 H         1 <0>         0.1182
     56 H21        -4.5610    0.0129   -1.6990 H         1 <0>         0.1195
     57 H22        -6.2592   -0.3974   -1.3572 H         1 <0>         0.1038
     58 H23        -3.4434   -3.9697   -2.1780 H         1 <0>         0.1257
     59 H24        -3.7607   -4.9321   -4.4206 H         1 <0>         0.1490
     60 H25        -5.5591   -4.0955   -5.8781 H         1 <0>         0.1440
     61 H26        -6.7288   -1.3315   -2.8330 H         1 <0>         0.1490
     62 H27        -7.1684   -3.5213   -6.9819 H         1 <0>         0.1826
     63 H28        -9.1673   -2.0869   -7.8985 H         1 <0>         0.1629
     64 H29        -9.7242   -0.2045   -6.0924 H         1 <0>         0.1977
     65 H30        -0.9850   -3.4020   -2.3039 H         1 <0>         0.3856
     66 H31        -3.3338   -1.7781    0.3318 H         1 <0>         0.4338
@<TRIPOS>BOND
     1    1    2 1
     2    1   38 1
     3    1   39 1
     4    1   40 1
     5    2    3 2
     6    2    4 am
     7    4    5 1
     8    4   41 1
     9    5    6 1
    10    5    7 1
    11    5   16 1
    12    7    8 1
    13    7   42 1
    14    7   43 1
    15    8   13 ar
    16    8    9 ar
    17    9   10 ar
    18    9   44 1
    19   10   11 ar
    20   10   15 1
    21   11   12 ar
    22   11   45 1
    23   12   13 ar
    24   12   14 1
    25   13   46 1
    26   16   17 1
    27   16   18 1
    28   16   37 1
    29   18   19 1
    30   18   47 1
    31   18   48 1
    32   19   20 1
    33   19   49 1
    34   19   66 1
    35   20   25 1
    36   20   21 1
    37   20   26 1
    38   21   22 1
    39   21   50 1
    40   21   51 1
    41   22   23 1
    42   22   52 1
    43   22   53 1
    44   23   24 1
    45   23   54 1
    46   23   55 1
    47   24   25 1
    48   25   56 1
    49   25   57 1
    50   26   31 ar
    51   26   27 ar
    52   27   28 ar
    53   27   58 1
    54   28   29 ar
    55   28   59 1
    56   29   30 ar
    57   29   60 1
    58   30   31 ar
    59   30   32 1
    60   31   61 1
    61   32   36 1
    62   32   33 1
    63   33   34 2
    64   33   62 1
    65   34   35 1
    66   34   63 1
    67   35   36 2
    68   35   64 1
    69   37   65 1
@<TRIPOS>MOLECULE
CHEMBL1097057
   79    84     0     0     0
SMALL
USER_CHARGES

@<TRIPOS>ATOM
      1 C1          0.1025    1.2128   -0.0697 C.ar      1 <0>        -0.0911
      2 C2          1.2963    1.9120   -0.0648 C.ar      1 <0>        -0.1186
      3 C3          2.5007    1.2336   -0.0887 C.ar      1 <0>        -0.0625
      4 C4          2.5096   -0.1489   -0.1069 C.ar      1 <0>        -0.1496
      5 C5          1.3153   -0.8551   -0.1220 C.ar      1 <0>         0.0910
      6 C6          0.1088   -0.1676   -0.0994 C.ar      1 <0>        -0.1235
      7 O1          1.3206   -2.2166   -0.1786 O.3       1 <0>        -0.2603
      8 C7          2.0039   -2.7711   -1.2164 C.ar      1 <0>         0.1059
      9 C8          1.3372   -3.2829   -2.3222 C.ar      1 <0>        -0.0819
     10 C9          2.0595   -3.7953   -3.3830 C.ar      1 <0>        -0.1047
     11 C10         3.4478   -3.7954   -3.3543 C.ar      1 <0>         0.1357
     12 C11         4.1088   -3.3263   -2.2243 C.ar      1 <0>        -0.1168
     13 C12         3.3923   -2.8254   -1.1586 C.ar      1 <0>        -0.0966
     14 C13         5.6174   -3.3682   -2.1673 C.3       1 <0>         0.1505
     15 N1          6.2091   -3.4044   -3.5112 N.pl3     1 <0>        -0.5642
     16 C14         7.4902   -2.7446   -3.7347 C.3       1 <0>         0.1416
     17 H1          7.9168   -3.1060   -4.6865 H         1 <0>         0.0972
     18 C15         7.2869   -1.2358   -3.8592 C.3       1 <0>        -0.1399
     19 C16         7.1438   -0.5315   -2.5168 C.3       1 <0>        -0.1765
     20 C17         5.8962    0.3160   -2.4923 C.2       1 <0>         0.5147
     21 O2          5.0792    0.2291   -3.3845 O.2       1 <0>        -0.5257
     22 N2          5.7050    1.1877   -1.4586 N.am      1 <0>        -0.6120
     23 C18         4.4410    1.9474   -1.4719 C.3       1 <0>         0.1114
     24 C19         3.8047    1.9941   -0.0859 C.3       1 <0>        -0.0976
     25 C20         6.7233    1.3798   -0.4222 C.3       1 <0>         0.1453
     26 C21         7.9858    1.9794   -1.0491 C.3       1 <0>        -0.1809
     27 C22         9.0700    2.1031    0.0247 C.3       1 <0>         0.0612
     28 O3          9.3248    0.8169    0.5929 O.3       1 <0>        -0.3749
     29 C23         8.1921    0.2279    1.2348 C.3       1 <0>         0.0623
     30 C24         7.0726    0.0288    0.2097 C.3       1 <0>        -0.1975
     31 C25         8.4874   -3.0890   -2.6318 C.3       1 <0>        -0.0984
     32 C26         9.8496   -2.4783   -2.9669 C.3       1 <0>        -0.1107
     33 C27        10.8492   -2.8235   -1.8612 C.3       1 <0>        -0.1194
     34 C28        10.9846   -4.3437   -1.7526 C.3       1 <0>        -0.1241
     35 C29         9.6224   -4.9543   -1.4174 C.3       1 <0>        -0.1198
     36 C30         8.6228   -4.6091   -2.5231 C.3       1 <0>        -0.1168
     37 C31         5.5419   -4.0232   -4.5413 C.cat     1 <0>         0.7389
     38 N3          4.1880   -4.2634   -4.4444 N.pl3     1 <0>        -0.6251
     39 N4          6.1708   -4.4060   -5.6172 N.pl3     1 <0>        -0.7665
     40 H2         -0.8343    1.7479   -0.0458 H         1 <0>         0.1364
     41 H3          1.2835    2.9923   -0.0287 H         1 <0>         0.1307
     42 H4          3.4513   -0.6807   -0.0992 H         1 <0>         0.1216
     43 H5         -0.8225   -0.7118   -0.1149 H         1 <0>         0.1351
     44 H6          0.2571   -3.2773   -2.3631 H         1 <0>         0.1536
     45 H7          1.5427   -4.1971   -4.2415 H         1 <0>         0.1479
     46 H8          3.9111   -2.4793   -0.2761 H         1 <0>         0.1443
     47 H9          5.9563   -2.4891   -1.6294 H         1 <0>         0.1124
     48 H10         5.9126   -4.2673   -1.6268 H         1 <0>         0.1070
     49 H11         8.1607   -0.8152   -4.3793 H         1 <0>         0.0966
     50 H12         6.4116   -1.0387   -4.4794 H         1 <0>         0.0989
     51 H13         7.1105   -1.2279   -1.6874 H         1 <0>         0.1141
     52 H14         8.0183    0.1209   -2.3822 H         1 <0>         0.1173
     53 H15         4.6477    2.9680   -1.8077 H         1 <0>         0.0703
     54 H16         3.7441    1.4803   -2.1775 H         1 <0>         0.0998
     55 H17         3.6001    3.0365    0.1811 H         1 <0>         0.0861
     56 H18         4.4554    1.5792    0.6801 H         1 <0>         0.0854
     57 H19         6.3405    2.0530    0.3449 H         1 <0>         0.1016
     58 H20         8.3387    1.3296   -1.8499 H         1 <0>         0.0838
     59 H21         7.7586    2.9661   -1.4527 H         1 <0>         0.0847
     60 H22         9.9846    2.4895   -0.4251 H         1 <0>         0.1030
     61 H23         8.7324    2.7850    0.8052 H         1 <0>         0.0578
     62 H24         8.4742   -0.7367    1.6568 H         1 <0>         0.1009
     63 H25         7.8430    0.8852    2.0312 H         1 <0>         0.0570
     64 H26         6.1924   -0.3795    0.7063 H         1 <0>         0.0801
     65 H27         7.4071   -0.6604   -0.5657 H         1 <0>         0.0934
     66 H28         8.1326   -2.6870   -1.6827 H         1 <0>         0.0869
     67 H29        10.2044   -2.8802   -3.9159 H         1 <0>         0.0687
     68 H30         9.7531   -1.3953   -3.0443 H         1 <0>         0.0719
     69 H31        11.8197   -2.3885   -2.1000 H         1 <0>         0.0709
     70 H32        10.4944   -2.4216   -0.9122 H         1 <0>         0.0686
     71 H33        11.3394   -4.7456   -2.7016 H         1 <0>         0.0630
     72 H34        11.6967   -4.5896   -0.9649 H         1 <0>         0.0681
     73 H35         9.7188   -6.0373   -1.3400 H         1 <0>         0.0673
     74 H36         9.2676   -4.5524   -0.4684 H         1 <0>         0.0654
     75 H37         7.6523   -5.0441   -2.2843 H         1 <0>         0.0597
     76 H38         8.9775   -5.0110   -3.4721 H         1 <0>         0.0653
     77 H39         7.1254   -4.2556   -5.7005 H         1 <0>         0.4415
     78 H40         3.7479   -4.7643   -5.1453 H         1 <0>         0.4395
     79 H41         5.6840   -4.8413   -6.3345 H         1 <0>         0.4430
@<TRIPOS>BOND
     1    1    6 ar
     2    1    2 ar
     3    1   40 1
     4    2    3 ar
     5    2   41 1
     6    3   24 1
     7    3    4 ar
     8    4    5 ar
     9    4   42 1
    10    5    6 ar
    11    5    7 1
    12    6   43 1
    13    7    8 1
    14    8   13 ar
    15    8    9 ar
    16    9   10 ar
    17    9   44 1
    18   10   11 ar
    19   10   45 1
    20   11   38 1
    21   11   12 ar
    22   12   13 ar
    23   12   14 1
    24   13   46 1
    25   14   15 1
    26   14   47 1
    27   14   48 1
    28   15   16 1
    29   15   37 1
    30   16   17 1
    31   16   18 1
    32   16   31 1
    33   18   19 1
    34   18   49 1
    35   18   50 1
    36   19   20 1
    37   19   51 1
    38   19   52 1
    39   20   21 2
    40   20   22 am
    41   22   23 1
    42   22   25 1
    43   23   24 1
    44   23   53 1
    45   23   54 1
    46   24   55 1
    47   24   56 1
    48   25   30 1
    49   25   26 1
    50   25   57 1
    51   26   27 1
    52   26   58 1
    53   26   59 1
    54   27   28 1
    55   27   60 1
    56   27   61 1
    57   28   29 1
    58   29   30 1
    59   29   62 1
    60   29   63 1
    61   30   64 1
    62   30   65 1
    63   31   36 1
    64   31   32 1
    65   31   66 1
    66   32   33 1
    67   32   67 1
    68   32   68 1
    69   33   34 1
    70   33   69 1
    71   33   70 1
    72   34   35 1
    73   34   71 1
    74   34   72 1
    75   35   36 1
    76   35   73 1
    77   35   74 1
    78   36   75 1
    79   36   76 1
    80   37   38 1
    81   37   39 2
    82   38   78 1
    83   39   77 1
    84   39   79 1
@<TRIPOS>MOLECULE
CHEMBL1097057__1
   79    84     0     0     0
SMALL
USER_CHARGES

@<TRIPOS>ATOM
      1 C1          0.3786    2.2037   -0.7558 C.ar      1 <0>        -0.0718
      2 C2          1.5466    2.7567   -0.2623 C.ar      1 <0>        -0.1287
      3 C3          2.6485    1.9549   -0.0288 C.ar      1 <0>        -0.0440
      4 C4          2.5855    0.5987   -0.2891 C.ar      1 <0>        -0.2589
      5 C5          1.4152    0.0426   -0.7836 C.ar      1 <0>         0.1031
      6 C6          0.3098    0.8496   -1.0164 C.ar      1 <0>        -0.1290
      7 O1          1.3451   -1.2876   -1.0395 O.3       1 <0>        -0.2306
      8 C7          2.5023   -1.9883   -1.1796 C.ar      1 <0>         0.1433
      9 C8          2.4952   -3.3547   -0.9393 C.ar      1 <0>        -0.0963
     10 C9          3.6528   -4.0877   -1.0810 C.ar      1 <0>        -0.0727
     11 C10         4.8335   -3.4460   -1.4643 C.ar      1 <0>         0.0707
     12 C11         4.8299   -2.0726   -1.7017 C.ar      1 <0>        -0.0905
     13 C12         3.6666   -1.3474   -1.5601 C.ar      1 <0>        -0.1701
     14 C13         6.0986   -1.3715   -2.1130 C.3       1 <0>         0.0621
     15 N1          7.2448   -2.2764   -2.1285 N.pl3     1 <0>        -0.5501
     16 C14         8.5838   -1.7346   -2.3842 C.3       1 <0>         0.1295
     17 H1          8.8628   -1.9328   -3.4190 H         1 <0>         0.1145
     18 C15         8.5926   -0.2266   -2.1362 C.3       1 <0>        -0.1272
     19 C16         7.9362    0.0801   -0.7891 C.3       1 <0>        -0.3148
     20 C17         7.0590    1.2976   -0.9234 C.2       1 <0>         0.5050
     21 O2          7.4621    2.2828   -1.5046 O.2       1 <0>        -0.5090
     22 N2          5.8076    1.2792   -0.3849 N.am      1 <0>        -0.6231
     23 C18         4.9994    2.5018   -0.5809 C.3       1 <0>         0.1186
     24 C19         3.9226    2.5562    0.5069 C.3       1 <0>        -0.1766
     25 C20         5.2934    0.1173    0.3444 C.3       1 <0>         0.0981
     26 C21         5.0851    0.4871    1.8161 C.3       1 <0>        -0.2203
     27 C22         4.6231   -0.7532    2.5855 C.3       1 <0>         0.0580
     28 O3          5.5920   -1.7929    2.4364 O.3       1 <0>        -0.3652
     29 C23         5.7940   -2.2129    1.0855 C.3       1 <0>         0.0571
     30 C24         6.3031   -1.0312    0.2559 C.3       1 <0>        -0.3264
     31 C25         9.5909   -2.4069   -1.4489 C.3       1 <0>        -0.1294
     32 C26         9.1361   -2.2315    0.0013 C.3       1 <0>        -0.1443
     33 C27        10.1432   -2.9038    0.9365 C.3       1 <0>        -0.1176
     34 C28        11.5189   -2.2602    0.7521 C.3       1 <0>        -0.1253
     35 C29        11.9738   -2.4357   -0.6982 C.3       1 <0>        -0.1190
     36 C30        10.9667   -1.7633   -1.6334 C.3       1 <0>        -0.1167
     37 C31         7.1183   -3.6204   -1.9112 C.cat     1 <0>         0.7286
     38 N3          5.9814   -4.1774   -1.6025 N.pl3     1 <0>        -0.5571
     39 N4          8.2327   -4.4146   -2.0240 N.pl3     1 <0>        -0.8457
     40 H2         -0.4822    2.8314   -0.9332 H         1 <0>         0.1414
     41 H3          1.5980    3.8162   -0.0596 H         1 <0>         0.1346
     42 H4          3.4469   -0.0271   -0.1079 H         1 <0>         0.1753
     43 H5         -0.6029    0.4187   -1.4005 H         1 <0>         0.1404
     44 H6          1.5803   -3.8446   -0.6403 H         1 <0>         0.1645
     45 H7          3.6481   -5.1518   -0.8965 H         1 <0>         0.1626
     46 H8          3.6646   -0.2835   -1.7458 H         1 <0>         0.1668
     47 H9          5.9642   -0.9542   -3.1109 H         1 <0>         0.1171
     48 H10         6.2976   -0.5609   -1.4119 H         1 <0>         0.1866
     49 H11         9.6214    0.1335   -2.1284 H         1 <0>         0.1162
     50 H12         8.0402    0.2747   -2.9310 H         1 <0>         0.0863
     51 H13         7.3309   -0.7713   -0.4777 H         1 <0>         0.2113
     52 H14         8.7084    0.2691   -0.0433 H         1 <0>         0.1199
     53 H15         5.6405    3.3800   -0.5041 H         1 <0>         0.0973
     54 H16         4.5287    2.4751   -1.5637 H         1 <0>         0.0739
     55 H17         3.7445    3.5935    0.7906 H         1 <0>         0.0980
     56 H18         4.2536    1.9913    1.3784 H         1 <0>         0.1520
     57 H19         4.3451   -0.1965   -0.0919 H         1 <0>         0.1365
     58 H20         6.0233    0.8484    2.2372 H         1 <0>         0.0914
     59 H21         4.3267    1.2663    1.8921 H         1 <0>         0.1435
     60 H22         4.5144   -0.5064    3.6416 H         1 <0>         0.1118
     61 H23         3.6647   -1.0901    2.1902 H         1 <0>         0.0551
     62 H24         6.5289   -3.0176    1.0610 H         1 <0>         0.0913
     63 H25         4.8510   -2.5689    0.6706 H         1 <0>         0.0552
     64 H26         6.4158   -1.3379   -0.7840 H         1 <0>         0.1760
     65 H27         7.2659   -0.7006    0.6455 H         1 <0>         0.1343
     66 H28         9.6523   -3.4694   -1.6844 H         1 <0>         0.1123
     67 H29         9.0747   -1.1690    0.2368 H         1 <0>         0.0899
     68 H30         8.1560   -2.6900    0.1327 H         1 <0>         0.0489
     69 H31         9.8192   -2.7788    1.9697 H         1 <0>         0.0693
     70 H32        10.2046   -3.9663    0.7010 H         1 <0>         0.0621
     71 H33        11.4575   -1.1977    0.9876 H         1 <0>         0.0645
     72 H34        12.2364   -2.7392    1.4184 H         1 <0>         0.0690
     73 H35        12.9539   -1.9772   -0.8296 H         1 <0>         0.0715
     74 H36        12.0352   -3.4981   -0.9337 H         1 <0>         0.0647
     75 H37        11.2907   -1.8883   -2.6666 H         1 <0>         0.0729
     76 H38        10.9053   -0.7009   -1.3979 H         1 <0>         0.0745
     77 H39         8.4626   -5.0316   -1.3118 H         1 <0>         0.4400
     78 H40         8.7900   -4.3585   -2.8159 H         1 <0>         0.4433
     79 H41         5.9482   -5.1372   -1.4663 H         1 <0>         0.4496
@<TRIPOS>BOND
     1    1    6 ar
     2    1    2 ar
     3    1   40 1
     4    2    3 ar
     5    2   41 1
     6    3   24 1
     7    3    4 ar
     8    4    5 ar
     9    4   42 1
    10    5    6 ar
    11    5    7 1
    12    6   43 1
    13    7    8 1
    14    8   13 ar
    15    8    9 ar
    16    9   10 ar
    17    9   44 1
    18   10   11 ar
    19   10   45 1
    20   11   38 1
    21   11   12 ar
    22   12   13 ar
    23   12   14 1
    24   13   46 1
    25   14   15 1
    26   14   47 1
    27   14   48 1
    28   15   16 1
    29   15   37 1
    30   16   17 1
    31   16   18 1
    32   16   31 1
    33   18   19 1
    34   18   49 1
    35   18   50 1
    36   19   20 1
    37   19   51 1
    38   19   52 1
    39   20   21 2
    40   20   22 am
    41   22   23 1
    42   22   25 1
    43   23   24 1
    44   23   53 1
    45   23   54 1
    46   24   55 1
    47   24   56 1
    48   25   30 1
    49   25   26 1
    50   25   57 1
    51   26   27 1
    52   26   58 1
    53   26   59 1
    54   27   28 1
    55   27   60 1
    56   27   61 1
    57   28   29 1
    58   29   30 1
    59   29   62 1
    60   29   63 1
    61   30   64 1
    62   30   65 1
    63   31   36 1
    64   31   32 1
    65   31   66 1
    66   32   33 1
    67   32   67 1
    68   32   68 1
    69   33   34 1
    70   33   69 1
    71   33   70 1
    72   34   35 1
    73   34   71 1
    74   34   72 1
    75   35   36 1
    76   35   73 1
    77   35   74 1
    78   36   75 1
    79   36   76 1
    80   37   38 2
    81   37   39 1
    82   38   79 1
    83   39   77 1
    84   39   78 1
@<TRIPOS>MOLECULE
CHEMBL1097058
   72    76     0     0     0
SMALL
USER_CHARGES

@<TRIPOS>ATOM
      1 C1          1.1133    0.4276    0.8140 C.3       1 <0>        -0.1579
      2 C2          0.8017   -1.0704    0.8165 C.3       1 <0>        -0.1161
      3 C3          1.2162   -1.6753    2.1593 C.3       1 <0>        -0.1603
      4 C4         -0.6990   -1.2795    0.6044 C.3       1 <0>         0.1189
      5 H1         -1.0147   -0.7559   -0.2979 H         1 <0>         0.1141
      6 C5         -1.4655   -0.7286    1.8080 C.3       1 <0>        -0.1215
      7 C6         -2.9681   -0.7717    1.5259 C.3       1 <0>        -0.3375
      8 C7         -3.7115   -1.0778    2.7999 C.2       1 <0>         0.5162
      9 O1         -3.6274   -0.3439    3.7618 O.2       1 <0>        -0.5089
     10 N1         -4.4863   -2.2087    2.8425 N.am      1 <0>        -0.6281
     11 C8         -5.1922   -2.4219    4.1281 C.3       1 <0>         0.1180
     12 C9         -6.4663   -3.2259    3.8592 C.3       1 <0>        -0.1813
     13 C10        -6.1832   -4.6930    4.0559 C.ar      1 <0>        -0.0495
     14 C11        -6.7573   -5.3691    5.1162 C.ar      1 <0>        -0.1287
     15 C12        -6.5059   -6.7157    5.2985 C.ar      1 <0>        -0.0729
     16 C13        -5.6793   -7.3890    4.4225 C.ar      1 <0>        -0.1300
     17 C14        -5.0945   -6.7118    3.3582 C.ar      1 <0>         0.1069
     18 C15        -5.3514   -5.3610    3.1775 C.ar      1 <0>        -0.2536
     19 O2         -4.2825   -7.3905    2.5105 O.3       1 <0>        -0.2348
     20 C16        -3.4591   -6.7118    1.6719 C.ar      1 <0>         0.1342
     21 C17        -3.0732   -7.2903    0.4695 C.ar      1 <0>        -0.0901
     22 C18        -2.2350   -6.6099   -0.3882 C.ar      1 <0>        -0.0849
     23 C19        -1.7781   -5.3412   -0.0490 C.ar      1 <0>         0.1119
     24 C20        -2.1585   -4.7693    1.1555 C.ar      1 <0>        -0.1020
     25 C21        -3.0002   -5.4523    2.0139 C.ar      1 <0>        -0.1673
     26 C22        -1.6650   -3.4031    1.5479 C.3       1 <0>         0.1013
     27 N2         -0.9772   -2.7116    0.4608 N.pl3     1 <0>        -0.5725
     28 C23        -0.5764   -3.3519   -0.6830 C.cat     1 <0>         0.7317
     29 N3         -0.9354   -4.6521   -0.9287 N.pl3     1 <0>        -0.6206
     30 N4          0.1569   -2.7140   -1.5516 N.pl3     1 <0>        -0.7684
     31 C24        -4.6067   -3.1301    1.7099 C.3       1 <0>         0.1086
     32 C25        -3.8637   -2.5550    0.5002 C.3       1 <0>        -0.2586
     33 C26        -4.0609   -3.4853   -0.6996 C.3       1 <0>         0.0453
     34 O3         -5.4579   -3.6328   -0.9617 O.3       1 <0>        -0.3651
     35 C27        -6.1962   -4.2101    0.1171 C.3       1 <0>         0.0581
     36 C28        -6.0848   -3.3089    1.3497 C.3       1 <0>        -0.2400
     37 H2          2.1825    0.5765    0.9651 H         1 <0>         0.0768
     38 H3          0.8180    0.8585   -0.1427 H         1 <0>         0.0661
     39 H4          0.5614    0.9148    1.6178 H         1 <0>         0.0732
     40 H5          1.3536   -1.5576    0.0127 H         1 <0>         0.0758
     41 H6          0.6643   -1.1880    2.9631 H         1 <0>         0.0725
     42 H7          0.9942   -2.7424    2.1611 H         1 <0>         0.0538
     43 H8          2.2854   -1.5263    2.3104 H         1 <0>         0.0742
     44 H9         -1.2439   -1.3339    2.6870 H         1 <0>         0.0874
     45 H10        -1.1603    0.3016    1.9916 H         1 <0>         0.1145
     46 H11        -3.2929    0.1943    1.1392 H         1 <0>         0.1108
     47 H12        -3.1771   -1.5466    0.7885 H         1 <0>         0.2189
     48 H13        -4.5481   -2.9749    4.8117 H         1 <0>         0.0723
     49 H14        -5.4532   -1.4585    4.5662 H         1 <0>         0.0995
     50 H15        -7.2479   -2.9106    4.5505 H         1 <0>         0.0964
     51 H16        -6.7956   -3.0534    2.8345 H         1 <0>         0.1578
     52 H17        -7.4034   -4.8437    5.8039 H         1 <0>         0.1338
     53 H18        -6.9565   -7.2414    6.1273 H         1 <0>         0.1407
     54 H19        -5.4862   -8.4422    4.5638 H         1 <0>         0.1395
     55 H20        -4.9020   -4.8316    2.3504 H         1 <0>         0.1692
     56 H21        -3.4307   -8.2747    0.2058 H         1 <0>         0.1622
     57 H22        -1.9335   -7.0618   -1.3216 H         1 <0>         0.1593
     58 H23        -3.2992   -5.0032    2.9495 H         1 <0>         0.1634
     59 H24        -2.5164   -2.8006    1.8645 H         1 <0>         0.1470
     60 H25        -0.9775   -3.5066    2.3874 H         1 <0>         0.1137
     61 H26         0.4567   -1.8110   -1.3632 H         1 <0>         0.4447
     62 H27        -4.1774   -4.0955    1.9780 H         1 <0>         0.1264
     63 H28        -4.2607   -1.5676    0.2646 H         1 <0>         0.1197
     64 H29        -2.8009   -2.4762    0.7292 H         1 <0>         0.1549
     65 H30        -3.5699   -3.0592   -1.5745 H         1 <0>         0.0927
     66 H31        -3.6275   -4.4606   -0.4783 H         1 <0>         0.0618
     67 H32        -7.2434   -4.3062   -0.1695 H         1 <0>         0.1117
     68 H33        -5.7907   -5.1950    0.3490 H         1 <0>         0.0524
     69 H34        -6.6104   -3.7693    2.1862 H         1 <0>         0.1591
     70 H35        -6.5266   -2.3368    1.1312 H         1 <0>         0.0942
     71 H36        -0.6007   -5.0999   -1.7214 H         1 <0>         0.4462
     72 H37         0.4027   -3.1424   -2.3865 H         1 <0>         0.4431
@<TRIPOS>BOND
     1    1    2 1
     2    1   37 1
     3    1   38 1
     4    1   39 1
     5    2    3 1
     6    2    4 1
     7    2   40 1
     8    3   41 1
     9    3   42 1
    10    3   43 1
    11    4    5 1
    12    4   27 1
    13    4    6 1
    14    6    7 1
    15    6   44 1
    16    6   45 1
    17    7    8 1
    18    7   46 1
    19    7   47 1
    20    8    9 2
    21    8   10 am
    22   10   11 1
    23   10   31 1
    24   11   12 1
    25   11   48 1
    26   11   49 1
    27   12   13 1
    28   12   50 1
    29   12   51 1
    30   13   18 ar
    31   13   14 ar
    32   14   15 ar
    33   14   52 1
    34   15   16 ar
    35   15   53 1
    36   16   17 ar
    37   16   54 1
    38   17   18 ar
    39   17   19 1
    40   18   55 1
    41   19   20 1
    42   20   25 ar
    43   20   21 ar
    44   21   22 ar
    45   21   56 1
    46   22   23 ar
    47   22   57 1
    48   23   29 1
    49   23   24 ar
    50   24   25 ar
    51   24   26 1
    52   25   58 1
    53   26   27 1
    54   26   59 1
    55   26   60 1
    56   27   28 1
    57   28   29 1
    58   28   30 2
    59   29   71 1
    60   30   61 1
    61   30   72 1
    62   31   36 1
    63   31   32 1
    64   31   62 1
    65   32   33 1
    66   32   63 1
    67   32   64 1
    68   33   34 1
    69   33   65 1
    70   33   66 1
    71   34   35 1
    72   35   36 1
    73   35   67 1
    74   35   68 1
    75   36   69 1
    76   36   70 1
@<TRIPOS>MOLECULE
CHEMBL1097058__1
   71    75     0     0     0
SMALL
USER_CHARGES

@<TRIPOS>ATOM
      1 C1          0.1950   -0.3114   -1.1443 C.3       1 <0>        -0.1561
      2 C2         -0.4891    0.0392    0.1785 C.3       1 <0>        -0.1083
      3 C3         -0.5012    1.5584    0.3595 C.3       1 <0>        -0.1481
      4 C4         -1.9164   -0.4804    0.1637 C.3       1 <0>         0.1505
      5 H1         -2.4518    0.0497   -0.6531 H         1 <0>         0.0896
      6 C5         -2.6421   -0.1098    1.4690 C.3       1 <0>        -0.1560
      7 C6         -4.0779    0.2643    1.1047 C.3       1 <0>        -0.1433
      8 C7         -5.0185    0.2101    2.2674 C.2       1 <0>         0.5288
      9 O1         -5.2896    1.2376    2.8724 O.2       1 <0>        -0.5265
     10 N1         -5.5834   -0.9686    2.6702 N.am      1 <0>        -0.6325
     11 C8         -6.9429   -0.8480    3.2523 C.3       1 <0>         0.1083
     12 C9         -7.9778   -0.9239    2.1278 C.3       1 <0>        -0.0981
     13 C10        -8.3157   -2.3636    1.8401 C.ar      1 <0>        -0.0589
     14 C11        -9.3245   -3.0132    2.5275 C.ar      1 <0>        -0.1313
     15 C12        -9.6021   -4.3398    2.2501 C.ar      1 <0>        -0.0920
     16 C13        -8.8752   -5.0259    1.2967 C.ar      1 <0>        -0.1334
     17 C14        -7.8647   -4.3742    0.6096 C.ar      1 <0>         0.0975
     18 C15        -7.6034   -3.0378    0.8656 C.ar      1 <0>        -0.1521
     19 O2         -7.0997   -5.0609   -0.2886 O.3       1 <0>        -0.2565
     20 C16        -5.7546   -4.8885   -0.1421 C.ar      1 <0>         0.0325
     21 C17        -4.9995   -5.8195    0.5490 C.ar      1 <0>        -0.0802
     22 C18        -3.6580   -5.5931    0.7861 C.ar      1 <0>        -0.1204
     23 C19        -3.0733   -4.4142    0.3188 C.ar      1 <0>         0.1904
     24 C20        -3.8231   -3.5310   -0.4668 C.ar      1 <0>        -0.1849
     25 C21        -5.1522   -3.7726   -0.7051 C.ar      1 <0>        -0.0885
     26 C22        -3.1278   -2.3129   -1.0242 C.3       1 <0>         0.1755
     27 N2         -2.0455   -1.9057   -0.0904 N.pl3     1 <0>        -0.6288
     28 C23        -1.2887   -2.8961    0.4601 C.2       1 <0>         0.6644
     29 N3         -1.7810   -4.1060    0.6262 N.2       1 <0>        -0.6303
     30 N4          0.0117   -2.7242    0.8573 N.pl3     1 <0>        -0.8332
     31 C24        -4.9046   -2.2664    2.5766 C.3       1 <0>         0.1653
     32 C25        -5.8733   -3.3816    2.9820 C.3       1 <0>        -0.2022
     33 C26        -5.1346   -4.7223    2.9573 C.3       1 <0>         0.0026
     34 O3         -4.0076   -4.6600    3.8338 O.3       1 <0>        -0.3771
     35 C27        -3.0446   -3.6666    3.4761 C.3       1 <0>         0.0457
     36 C28        -3.6993   -2.2835    3.5217 C.3       1 <0>        -0.1864
     37 H2          1.1939    0.1245   -1.1635 H         1 <0>         0.0648
     38 H3          0.2695   -1.3947   -1.2390 H         1 <0>         0.0577
     39 H4         -0.3909    0.0864   -1.9730 H         1 <0>         0.0630
     40 H5          0.0564   -0.4206    1.0027 H         1 <0>         0.0770
     41 H6         -1.1503    2.0086   -0.3916 H         1 <0>         0.0620
     42 H7         -0.8731    1.8028    1.3546 H         1 <0>         0.0639
     43 H8          0.5110    1.9461    0.2445 H         1 <0>         0.0660
     44 H9         -2.6214   -0.9534    2.1498 H         1 <0>         0.0966
     45 H10        -2.1440    0.7468    1.9254 H         1 <0>         0.0899
     46 H11        -4.0768    1.2849    0.6984 H         1 <0>         0.0973
     47 H12        -4.4356   -0.3995    0.3140 H         1 <0>         0.0826
     48 H13        -7.1118   -1.6649    3.9553 H         1 <0>         0.0838
     49 H14        -7.0378    0.1045    3.7709 H         1 <0>         0.0924
     50 H15        -8.8802   -0.3916    2.4291 H         1 <0>         0.0873
     51 H16        -7.5728   -0.4575    1.2301 H         1 <0>         0.0747
     52 H17        -9.8946   -2.4861    3.2793 H         1 <0>         0.1283
     53 H18       -10.3942   -4.8442    2.7840 H         1 <0>         0.1308
     54 H19        -9.0912   -6.0643    1.0930 H         1 <0>         0.1343
     55 H20        -6.8533   -2.5130    0.2909 H         1 <0>         0.1274
     56 H21        -5.4593   -6.7300    0.9044 H         1 <0>         0.1370
     57 H22        -3.0695   -6.3234    1.3203 H         1 <0>         0.1418
     58 H23        -5.7296   -3.1023   -1.3246 H         1 <0>         0.1292
     59 H24        -2.6811   -2.5483   -1.9827 H         1 <0>         0.0767
     60 H25        -3.8312   -1.4968   -1.1173 H         1 <0>         0.0923
     61 H26         0.4887   -1.9140    0.6187 H         1 <0>         0.4077
     62 H27         0.4552   -3.4129    1.3769 H         1 <0>         0.4210
     63 H28        -4.5676   -2.4286    1.5528 H         1 <0>         0.0822
     64 H29        -6.2482   -3.1908    3.9876 H         1 <0>         0.0677
     65 H30        -6.7074   -3.4123    2.2810 H         1 <0>         0.1208
     66 H31        -5.8076   -5.5142    3.2863 H         1 <0>         0.0842
     67 H32        -4.7951   -4.9317    1.9429 H         1 <0>         0.1115
     68 H33        -2.2119   -3.6980    4.1788 H         1 <0>         0.0851
     69 H34        -2.6777   -3.8622    2.4685 H         1 <0>         0.0833
     70 H35        -2.9786   -1.5289    3.2066 H         1 <0>         0.0823
     71 H36        -4.0303   -2.0705    4.5381 H         1 <0>         0.0713
@<TRIPOS>BOND
     1    1    2 1
     2    1   37 1
     3    1   38 1
     4    1   39 1
     5    2    3 1
     6    2    4 1
     7    2   40 1
     8    3   41 1
     9    3   42 1
    10    3   43 1
    11    4    5 1
    12    4   27 1
    13    4    6 1
    14    6    7 1
    15    6   44 1
    16    6   45 1
    17    7    8 1
    18    7   46 1
    19    7   47 1
    20    8    9 2
    21    8   10 am
    22   10   11 1
    23   10   31 1
    24   11   12 1
    25   11   48 1
    26   11   49 1
    27   12   13 1
    28   12   50 1
    29   12   51 1
    30   13   18 ar
    31   13   14 ar
    32   14   15 ar
    33   14   52 1
    34   15   16 ar
    35   15   53 1
    36   16   17 ar
    37   16   54 1
    38   17   18 ar
    39   17   19 1
    40   18   55 1
    41   19   20 1
    42   20   25 ar
    43   20   21 ar
    44   21   22 ar
    45   21   56 1
    46   22   23 ar
    47   22   57 1
    48   23   29 1
    49   23   24 ar
    50   24   25 ar
    51   24   26 1
    52   25   58 1
    53   26   27 1
    54   26   59 1
    55   26   60 1
    56   27   28 1
    57   28   29 2
    58   28   30 1
    59   30   61 1
    60   30   62 1
    61   31   36 1
    62   31   32 1
    63   31   63 1
    64   32   33 1
    65   32   64 1
    66   32   65 1
    67   33   34 1
    68   33   66 1
    69   33   67 1
    70   34   35 1
    71   35   36 1
    72   35   68 1
    73   35   69 1
    74   36   70 1
    75   36   71 1
@<TRIPOS>MOLECULE
CHEMBL1097058__2
   72    76     0     0     0
SMALL
USER_CHARGES

@<TRIPOS>ATOM
      1 C1          0.1771   -0.3853   -1.2373 C.3       1 <0>        -0.1656
      2 C2         -0.4921    0.0011    0.0832 C.3       1 <0>        -0.1113
      3 C3         -0.4819    1.5236    0.2339 C.3       1 <0>        -0.1520
      4 C4         -1.9269   -0.4988    0.0891 C.3       1 <0>         0.1337
      5 H1         -2.4638    0.0205   -0.7329 H         1 <0>         0.1243
      6 C5         -2.6391   -0.0916    1.3900 C.3       1 <0>        -0.1570
      7 C6         -4.0921    0.2267    1.0369 C.3       1 <0>        -0.1489
      8 C7         -4.9972    0.2520    2.2296 C.2       1 <0>         0.5255
      9 O1         -5.2328    1.3179    2.7804 O.2       1 <0>        -0.5090
     10 N1         -5.5541   -0.8981    2.7147 N.am      1 <0>        -0.6328
     11 C8         -6.8845   -0.7364    3.3502 C.3       1 <0>         0.1076
     12 C9         -7.9738   -0.8283    2.2814 C.3       1 <0>        -0.0997
     13 C10        -8.3266   -2.2668    2.0089 C.ar      1 <0>        -0.0559
     14 C11        -9.3304   -2.9061    2.7143 C.ar      1 <0>        -0.1211
     15 C12        -9.6394   -4.2265    2.4385 C.ar      1 <0>        -0.0867
     16 C13        -8.9463   -4.9189    1.4635 C.ar      1 <0>        -0.1235
     17 C14        -7.9370   -4.2820    0.7634 C.ar      1 <0>         0.0856
     18 C15        -7.6411   -2.9558    1.0250 C.ar      1 <0>        -0.1571
     19 O2         -7.2030   -4.9724   -0.1614 O.3       1 <0>        -0.2529
     20 C16        -5.8510   -4.8205   -0.0319 C.ar      1 <0>         0.0977
     21 C17        -5.1155   -5.7377    0.6962 C.ar      1 <0>        -0.0782
     22 C18        -3.7682   -5.5323    0.9135 C.ar      1 <0>        -0.0935
     23 C19        -3.1594   -4.3908    0.3912 C.ar      1 <0>         0.1039
     24 C20        -3.8934   -3.5227   -0.4260 C.ar      1 <0>        -0.1222
     25 C21        -5.2326   -3.7372   -0.6401 C.ar      1 <0>        -0.0837
     26 C22        -3.1702   -2.3511   -1.0461 C.3       1 <0>         0.1503
     27 N2         -2.0781   -1.9268   -0.1269 N.pl3     1 <0>        -0.5738
     28 C23        -1.3351   -2.9120    0.4513 C.cat     1 <0>         0.7354
     29 N3         -1.8560   -4.1001    0.6729 N.pl3     1 <0>        -0.5865
     30 N4         -0.0208   -2.7596    0.8050 N.pl3     1 <0>        -0.8054
     31 C24        -4.8861   -2.2050    2.6563 C.3       1 <0>         0.1665
     32 C25        -5.8486   -3.2945    3.1390 C.3       1 <0>        -0.2049
     33 C26        -5.1195   -4.6406    3.1494 C.3       1 <0>         0.0111
     34 O3         -3.9654   -4.5493    3.9872 O.3       1 <0>        -0.3673
     35 C27        -3.0078   -3.5795    3.5576 C.3       1 <0>         0.0598
     36 C28        -3.6520   -2.1908    3.5637 C.3       1 <0>        -0.1926
     37 H2          1.1838    0.0314   -1.2700 H         1 <0>         0.0792
     38 H3          0.2308   -1.4713   -1.3134 H         1 <0>         0.0495
     39 H4         -0.4064    0.0089   -2.0693 H         1 <0>         0.0754
     40 H5          0.0531   -0.4498    0.9124 H         1 <0>         0.0769
     41 H6         -1.1297    1.9678   -0.5218 H         1 <0>         0.0704
     42 H7         -0.8434    1.7929    1.2263 H         1 <0>         0.0701
     43 H8          0.5348    1.8947    0.1046 H         1 <0>         0.0770
     44 H9         -2.5847   -0.8986    2.1110 H         1 <0>         0.0947
     45 H10        -2.1573    0.7988    1.7954 H         1 <0>         0.1087
     46 H11        -4.1225    1.2089    0.5472 H         1 <0>         0.1081
     47 H12        -4.4565   -0.5110    0.3187 H         1 <0>         0.0808
     48 H13        -7.0352   -1.5165    4.0965 H         1 <0>         0.0866
     49 H14        -6.9365    0.2393    3.8365 H         1 <0>         0.0966
     50 H15        -8.8627   -0.2934    2.6232 H         1 <0>         0.0940
     51 H16        -7.6152   -0.3656    1.3597 H         1 <0>         0.0763
     52 H17        -9.8766   -2.3785    3.4801 H         1 <0>         0.1333
     53 H18       -10.4278   -4.7180    2.9886 H         1 <0>         0.1381
     54 H19        -9.1914   -5.9487    1.2595 H         1 <0>         0.1392
     55 H20        -6.8809   -2.4455    0.4521 H         1 <0>         0.1250
     56 H21        -5.5975   -6.6189    1.0945 H         1 <0>         0.1613
     57 H22        -3.1899   -6.2509    1.4768 H         1 <0>         0.1602
     58 H23        -5.8014   -3.0683   -1.2671 H         1 <0>         0.1567
     59 H24        -2.7217   -2.6514   -1.9866 H         1 <0>         0.1142
     60 H25        -3.8461   -1.5221   -1.1936 H         1 <0>         0.1277
     61 H26         0.4679   -1.9694    0.5264 H         1 <0>         0.4405
     62 H27         0.4214   -3.4419    1.3340 H         1 <0>         0.4363
     63 H28        -4.5821   -2.4136    1.6306 H         1 <0>         0.0700
     64 H29        -6.1908   -3.0579    4.1465 H         1 <0>         0.0813
     65 H30        -6.7042   -3.3489    2.4660 H         1 <0>         0.1208
     66 H31        -5.7868   -5.4125    3.5327 H         1 <0>         0.0986
     67 H32        -4.8129   -4.8958    2.1350 H         1 <0>         0.0896
     68 H33        -2.1538   -3.5870    4.2350 H         1 <0>         0.0967
     69 H34        -2.6736   -3.8208    2.5486 H         1 <0>         0.0352
     70 H35        -2.9368   -1.4558    3.1943 H         1 <0>         0.0829
     71 H36        -3.9499   -1.9318    4.5797 H         1 <0>         0.0871
     72 H37        -1.2850   -4.7862    1.0500 H         1 <0>         0.4416
@<TRIPOS>BOND
     1    1    2 1
     2    1   37 1
     3    1   38 1
     4    1   39 1
     5    2    3 1
     6    2    4 1
     7    2   40 1
     8    3   41 1
     9    3   42 1
    10    3   43 1
    11    4    5 1
    12    4   27 1
    13    4    6 1
    14    6    7 1
    15    6   44 1
    16    6   45 1
    17    7    8 1
    18    7   46 1
    19    7   47 1
    20    8    9 2
    21    8   10 am
    22   10   11 1
    23   10   31 1
    24   11   12 1
    25   11   48 1
    26   11   49 1
    27   12   13 1
    28   12   50 1
    29   12   51 1
    30   13   18 ar
    31   13   14 ar
    32   14   15 ar
    33   14   52 1
    34   15   16 ar
    35   15   53 1
    36   16   17 ar
    37   16   54 1
    38   17   18 ar
    39   17   19 1
    40   18   55 1
    41   19   20 1
    42   20   25 ar
    43   20   21 ar
    44   21   22 ar
    45   21   56 1
    46   22   23 ar
    47   22   57 1
    48   23   29 1
    49   23   24 ar
    50   24   25 ar
    51   24   26 1
    52   25   58 1
    53   26   27 1
    54   26   59 1
    55   26   60 1
    56   27   28 1
    57   28   29 2
    58   28   30 1
    59   29   72 1
    60   30   61 1
    61   30   62 1
    62   31   36 1
    63   31   32 1
    64   31   63 1
    65   32   33 1
    66   32   64 1
    67   32   65 1
    68   33   34 1
    69   33   66 1
    70   33   67 1
    71   34   35 1
    72   35   36 1
    73   35   68 1
    74   35   69 1
    75   36   70 1
    76   36   71 1
@<TRIPOS>MOLECULE
CHEMBL1098082
   74    78     0     0     0
SMALL
USER_CHARGES

@<TRIPOS>ATOM
      1 C1          0.2225   -0.3527   -1.1669 C.3       1 <0>        -0.1655
      2 C2         -0.4647    0.0246    0.1470 C.3       1 <0>        -0.1112
      3 C3         -0.4600    1.5462    0.3064 C.3       1 <0>        -0.1519
      4 C4         -1.8983   -0.4786    0.1314 C.3       1 <0>         0.1343
      5 H1         -2.4257    0.0441   -0.6945 H         1 <0>         0.1231
      6 C5         -2.6283   -0.0804    1.4252 C.3       1 <0>        -0.1593
      7 C6         -4.0773    0.2366    1.0550 C.3       1 <0>        -0.1481
      8 C7         -4.9979    0.2530    2.2360 C.2       1 <0>         0.5252
      9 O1         -5.2432    1.3151    2.7897 O.2       1 <0>        -0.5123
     10 N1         -5.5583   -0.9012    2.7074 N.am      1 <0>        -0.6337
     11 C8         -6.8972   -0.7461    3.3264 C.3       1 <0>         0.1083
     12 C9         -7.9723   -0.8345    2.2431 C.3       1 <0>        -0.0997
     13 C10        -8.3182   -2.2722    1.9578 C.ar      1 <0>        -0.0552
     14 C11        -9.3295   -2.9177    2.6465 C.ar      1 <0>        -0.1225
     15 C12        -9.6318   -4.2373    2.3592 C.ar      1 <0>        -0.0879
     16 C13        -8.9245   -4.9225    1.3894 C.ar      1 <0>        -0.1240
     17 C14        -7.9077   -4.2794    0.7060 C.ar      1 <0>         0.0879
     18 C15        -7.6183   -2.9539    0.9790 C.ar      1 <0>        -0.1528
     19 O2         -7.1601   -4.9628   -0.2130 O.3       1 <0>        -0.2541
     20 C16        -5.8103   -4.8085   -0.0651 C.ar      1 <0>         0.0934
     21 C17        -5.0821   -5.7281    0.6673 C.ar      1 <0>        -0.0662
     22 C18        -3.7382   -5.5210    0.9033 C.ar      1 <0>        -0.0940
     23 C19        -3.1254   -4.3750    0.3954 C.ar      1 <0>         0.1098
     24 C20        -3.8508   -3.5040   -0.4264 C.ar      1 <0>        -0.1252
     25 C21        -5.1865   -3.7204   -0.6591 C.ar      1 <0>        -0.0819
     26 C22        -3.1223   -2.3272   -1.0304 C.3       1 <0>         0.1506
     27 N2         -2.0433   -1.9057   -0.0946 N.pl3     1 <0>        -0.5729
     28 C23        -1.3055   -2.8925    0.4876 C.cat     1 <0>         0.7365
     29 N3         -1.8265   -4.0830    0.6957 N.pl3     1 <0>        -0.5848
     30 N4          0.0037   -2.7391    0.8592 N.pl3     1 <0>        -0.8066
     31 C24        -4.8865   -2.2062    2.6502 C.3       1 <0>         0.1666
     32 C25        -5.8498   -3.2968    3.1230 C.3       1 <0>        -0.1661
     33 C26        -5.1500   -4.6561    3.0634 C.3       1 <0>        -0.1719
     34 C27        -3.9181   -4.6357    3.9704 C.3       1 <0>        -0.1198
     35 C28        -2.9548   -3.5451    3.4977 C.3       1 <0>        -0.1246
     36 C29        -3.6545   -2.1858    3.5572 C.3       1 <0>        -0.1541
     37 H2          1.2286    0.0665   -1.1841 H         1 <0>         0.0787
     38 H3          0.2797   -1.4381   -1.2484 H         1 <0>         0.0495
     39 H4         -0.3511    0.0448   -2.0042 H         1 <0>         0.0752
     40 H5          0.0708   -0.4297    0.9806 H         1 <0>         0.0767
     41 H6         -1.0990    1.9933   -0.4551 H         1 <0>         0.0702
     42 H7         -0.8351    1.8091    1.2955 H         1 <0>         0.0700
     43 H8          0.5574    1.9204    0.1924 H         1 <0>         0.0765
     44 H9         -2.5814   -0.8914    2.1422 H         1 <0>         0.0995
     45 H10        -2.1539    0.8088    1.8419 H         1 <0>         0.1068
     46 H11        -4.1036    1.2214    0.5706 H         1 <0>         0.1062
     47 H12        -4.4307   -0.4979    0.3281 H         1 <0>         0.0806
     48 H13        -7.0557   -1.5308    4.0663 H         1 <0>         0.0859
     49 H14        -6.9578    0.2266    3.8175 H         1 <0>         0.0948
     50 H15        -8.8669   -0.3035    2.5763 H         1 <0>         0.0925
     51 H16        -7.6029   -0.3657    1.3287 H         1 <0>         0.0758
     52 H17        -9.8868   -2.3957    3.4081 H         1 <0>         0.1320
     53 H18       -10.4261   -4.7337    2.8962 H         1 <0>         0.1365
     54 H19        -9.1645   -5.9517    1.1764 H         1 <0>         0.1375
     55 H20        -6.8520   -2.4387    0.4190 H         1 <0>         0.1244
     56 H21        -5.5671   -6.6127    1.0543 H         1 <0>         0.1587
     57 H22        -3.1656   -6.2414    1.4700 H         1 <0>         0.1571
     58 H23        -5.7488   -3.0492   -1.2896 H         1 <0>         0.1548
     59 H24        -2.6609   -2.6212   -1.9667 H         1 <0>         0.1127
     60 H25        -3.7982   -1.4990   -1.1819 H         1 <0>         0.1266
     61 H26         0.4941   -1.9461    0.5915 H         1 <0>         0.4400
     62 H27         0.4406   -3.4233    1.3900 H         1 <0>         0.4356
     63 H28        -4.5794   -2.4122    1.6249 H         1 <0>         0.0691
     64 H29        -6.1569   -3.0909    4.1483 H         1 <0>         0.0680
     65 H30        -6.7275   -3.3114    2.4768 H         1 <0>         0.1113
     66 H31        -5.8363   -5.4331    3.4002 H         1 <0>         0.0683
     67 H32        -4.8430   -4.8621    2.0381 H         1 <0>         0.1030
     68 H33        -4.2251   -4.4297    4.9958 H         1 <0>         0.0665
     69 H34        -3.4195   -5.6041    3.9280 H         1 <0>         0.0635
     70 H35        -2.0771   -3.5305    4.1439 H         1 <0>         0.0658
     71 H36        -2.6477   -3.7510    2.4723 H         1 <0>         0.0518
     72 H37        -2.9682   -1.4088    3.2204 H         1 <0>         0.0731
     73 H38        -3.9616   -1.9798    4.5826 H         1 <0>         0.0752
     74 H39        -1.2588   -4.7699    1.0762 H         1 <0>         0.4405
@<TRIPOS>BOND
     1    1    2 1
     2    1   37 1
     3    1   38 1
     4    1   39 1
     5    2    3 1
     6    2    4 1
     7    2   40 1
     8    3   41 1
     9    3   42 1
    10    3   43 1
    11    4    5 1
    12    4   27 1
    13    4    6 1
    14    6    7 1
    15    6   44 1
    16    6   45 1
    17    7    8 1
    18    7   46 1
    19    7   47 1
    20    8    9 2
    21    8   10 am
    22   10   11 1
    23   10   31 1
    24   11   12 1
    25   11   48 1
    26   11   49 1
    27   12   13 1
    28   12   50 1
    29   12   51 1
    30   13   18 ar
    31   13   14 ar
    32   14   15 ar
    33   14   52 1
    34   15   16 ar
    35   15   53 1
    36   16   17 ar
    37   16   54 1
    38   17   18 ar
    39   17   19 1
    40   18   55 1
    41   19   20 1
    42   20   25 ar
    43   20   21 ar
    44   21   22 ar
    45   21   56 1
    46   22   23 ar
    47   22   57 1
    48   23   29 1
    49   23   24 ar
    50   24   25 ar
    51   24   26 1
    52   25   58 1
    53   26   27 1
    54   26   59 1
    55   26   60 1
    56   27   28 1
    57   28   29 2
    58   28   30 1
    59   29   74 1
    60   30   61 1
    61   30   62 1
    62   31   36 1
    63   31   32 1
    64   31   63 1
    65   32   33 1
    66   32   64 1
    67   32   65 1
    68   33   34 1
    69   33   66 1
    70   33   67 1
    71   34   35 1
    72   34   68 1
    73   34   69 1
    74   35   36 1
    75   35   70 1
    76   35   71 1
    77   36   72 1
    78   36   73 1
@<TRIPOS>MOLECULE
CHEMBL1098082__1
   73    77     0     0     0
SMALL
USER_CHARGES

@<TRIPOS>ATOM
      1 C1          0.2348   -0.2831   -1.0782 C.3       1 <0>        -0.1559
      2 C2         -0.4658    0.0591    0.2382 C.3       1 <0>        -0.1083
      3 C3         -0.4833    1.5773    0.4270 C.3       1 <0>        -0.1480
      4 C4         -1.8918   -0.4632    0.2035 C.3       1 <0>         0.1511
      5 H1         -2.4185    0.0702   -0.6170 H         1 <0>         0.0884
      6 C5         -2.6339   -0.1009    1.5019 C.3       1 <0>        -0.1583
      7 C6         -4.0660    0.2723    1.1223 C.3       1 <0>        -0.1425
      8 C7         -5.0203    0.2101    2.2733 C.2       1 <0>         0.5285
      9 O1         -5.3008    1.2339    2.8804 O.2       1 <0>        -0.5297
     10 N1         -5.5877   -0.9718    2.6630 N.am      1 <0>        -0.6332
     11 C8         -6.9543   -0.8570    3.2294 C.3       1 <0>         0.1089
     12 C9         -7.9755   -0.9290    2.0921 C.3       1 <0>        -0.0981
     13 C10        -8.3070   -2.3678    1.7929 C.ar      1 <0>        -0.0582
     14 C11        -9.3226   -3.0231    2.4646 C.ar      1 <0>        -0.1328
     15 C12        -9.5942   -4.3487    2.1770 C.ar      1 <0>        -0.0932
     16 C13        -8.8545   -5.0283    1.2287 C.ar      1 <0>        -0.1336
     17 C14        -7.8371   -4.3710    0.5573 C.ar      1 <0>         0.0999
     18 C15        -7.5816   -3.0354    0.8235 C.ar      1 <0>        -0.1479
     19 O2         -7.0600   -5.0514   -0.3353 O.3       1 <0>        -0.2578
     20 C16        -5.7171   -4.8772   -0.1716 C.ar      1 <0>         0.0298
     21 C17        -4.9685   -5.8103    0.5236 C.ar      1 <0>        -0.0691
     22 C18        -3.6303   -5.5825    0.7780 C.ar      1 <0>        -0.1225
     23 C19        -3.0425   -4.4000    0.3240 C.ar      1 <0>         0.1958
     24 C20        -3.7845   -3.5141   -0.4659 C.ar      1 <0>        -0.1867
     25 C21        -5.1102   -3.7571   -0.7215 C.ar      1 <0>        -0.0871
     26 C22        -3.0851   -2.2918   -1.0085 C.3       1 <0>         0.1758
     27 N2         -2.0149   -1.8874   -0.0596 N.pl3     1 <0>        -0.6279
     28 C23        -1.2628   -2.8791    0.4947 C.2       1 <0>         0.6652
     29 N3         -1.7546   -4.0909    0.6485 N.2       1 <0>        -0.6294
     30 N4          0.0324   -2.7068    0.9084 N.pl3     1 <0>        -0.8340
     31 C24        -4.9052   -2.2677    2.5708 C.3       1 <0>         0.1649
     32 C25        -5.8743   -3.3837    2.9661 C.3       1 <0>        -0.1628
     33 C26        -5.1628   -4.7348    2.8700 C.3       1 <0>        -0.1799
     34 C27        -3.9595   -4.7459    3.8149 C.3       1 <0>        -0.1105
     35 C28        -2.9904   -3.6299    3.4196 C.3       1 <0>        -0.1383
     36 C29        -3.7019   -2.2788    3.5157 C.3       1 <0>        -0.1474
     37 H2          1.2330    0.1549   -1.0830 H         1 <0>         0.0643
     38 H3          0.3126   -1.3657   -1.1777 H         1 <0>         0.0577
     39 H4         -0.3419    0.1179   -1.9117 H         1 <0>         0.0628
     40 H5          0.0706   -0.4039    1.0664 H         1 <0>         0.0767
     41 H6         -1.1242    2.0302   -0.3294 H         1 <0>         0.0618
     42 H7         -0.8675    1.8157    1.4188 H         1 <0>         0.0639
     43 H8          0.5294    1.9677    0.3262 H         1 <0>         0.0655
     44 H9         -2.6197   -0.9480    2.1784 H         1 <0>         0.1015
     45 H10        -2.1431    0.7543    1.9687 H         1 <0>         0.0880
     46 H11        -4.0621    1.2950    0.7214 H         1 <0>         0.0955
     47 H12        -4.4128   -0.3880    0.3239 H         1 <0>         0.0823
     48 H13        -7.1300   -1.6779    3.9260 H         1 <0>         0.0832
     49 H14        -7.0574    0.0926    3.7518 H         1 <0>         0.0907
     50 H15        -8.8825   -0.4001    2.3854 H         1 <0>         0.0860
     51 H16        -7.5607   -0.4571    1.2019 H         1 <0>         0.0742
     52 H17        -9.9027   -2.5011    3.2122 H         1 <0>         0.1270
     53 H18       -10.3916   -4.8574    2.6986 H         1 <0>         0.1292
     54 H19        -9.0659   -6.0660    1.0171 H         1 <0>         0.1325
     55 H20        -6.8257   -2.5061    0.2606 H         1 <0>         0.1269
     56 H21        -5.4306   -6.7236    0.8687 H         1 <0>         0.1345
     57 H22        -3.0468   -6.3144    1.3154 H         1 <0>         0.1387
     58 H23        -5.6815   -3.0847   -1.3444 H         1 <0>         0.1274
     59 H24        -2.6265   -2.5213   -1.9628 H         1 <0>         0.0753
     60 H25        -3.7890   -1.4766   -1.1058 H         1 <0>         0.0915
     61 H26         0.5105   -1.8944    0.6798 H         1 <0>         0.4072
     62 H27         0.4709   -3.3973    1.4298 H         1 <0>         0.4202
     63 H28        -4.5651   -2.4273    1.5476 H         1 <0>         0.0812
     64 H29        -6.2144   -3.2242    3.9893 H         1 <0>         0.0550
     65 H30        -6.7316   -3.3759    2.2930 H         1 <0>         0.1112
     66 H31        -5.8532   -5.5299    3.1516 H         1 <0>         0.0547
     67 H32        -4.8228   -4.8944    1.8468 H         1 <0>         0.1259
     68 H33        -4.2995   -4.5863    4.8381 H         1 <0>         0.0490
     69 H34        -3.4526   -5.7084    3.7464 H         1 <0>         0.0589
     70 H35        -2.1331   -3.6378    4.0928 H         1 <0>         0.0537
     71 H36        -2.6503   -3.7895    2.3964 H         1 <0>         0.0997
     72 H37        -3.0115   -1.4837    3.2341 H         1 <0>         0.0717
     73 H38        -4.0419   -2.1192    4.5390 H         1 <0>         0.0594
@<TRIPOS>BOND
     1    1    2 1
     2    1   37 1
     3    1   38 1
     4    1   39 1
     5    2    3 1
     6    2    4 1
     7    2   40 1
     8    3   41 1
     9    3   42 1
    10    3   43 1
    11    4    5 1
    12    4   27 1
    13    4    6 1
    14    6    7 1
    15    6   44 1
    16    6   45 1
    17    7    8 1
    18    7   46 1
    19    7   47 1
    20    8    9 2
    21    8   10 am
    22   10   11 1
    23   10   31 1
    24   11   12 1
    25   11   48 1
    26   11   49 1
    27   12   13 1
    28   12   50 1
    29   12   51 1
    30   13   18 ar
    31   13   14 ar
    32   14   15 ar
    33   14   52 1
    34   15   16 ar
    35   15   53 1
    36   16   17 ar
    37   16   54 1
    38   17   18 ar
    39   17   19 1
    40   18   55 1
    41   19   20 1
    42   20   25 ar
    43   20   21 ar
    44   21   22 ar
    45   21   56 1
    46   22   23 ar
    47   22   57 1
    48   23   29 1
    49   23   24 ar
    50   24   25 ar
    51   24   26 1
    52   25   58 1
    53   26   27 1
    54   26   59 1
    55   26   60 1
    56   27   28 1
    57   28   29 2
    58   28   30 1
    59   30   61 1
    60   30   62 1
    61   31   36 1
    62   31   32 1
    63   31   63 1
    64   32   33 1
    65   32   64 1
    66   32   65 1
    67   33   34 1
    68   33   66 1
    69   33   67 1
    70   34   35 1
    71   34   68 1
    72   34   69 1
    73   35   36 1
    74   35   70 1
    75   35   71 1
    76   36   72 1
    77   36   73 1
@<TRIPOS>MOLECULE
CHEMBL556747
   78    82     0     0     0
SMALL
USER_CHARGES

@<TRIPOS>ATOM
      1 C1         -0.0187    1.5258    0.0104 C.3       1 <0>        -0.1478
      2 C2          0.0021   -0.0041    0.0020 C.3       1 <0>        -0.0486
      3 C3          0.7309   -0.5033    1.2229 C.2       1 <0>        -0.1537
      4 C4          2.0388   -0.8375    1.2968 C.2       1 <0>         0.0668
      5 N1          2.3503   -1.2452    2.5627 N.pl3     1 <0>        -0.4595
      6 C5          1.2240   -1.1905    3.3382 C.ar      1 <0>         0.0462
      7 C6          0.1621   -0.7099    2.5430 C.ar      1 <0>        -0.0618
      8 C7         -1.1077   -0.5369    3.0955 C.ar      1 <0>        -0.0463
      9 C8         -1.2615   -0.8634    4.4477 C.ar      1 <0>        -0.1322
     10 C9         -0.1986   -1.3469    5.2280 C.ar      1 <0>        -0.0671
     11 C10         1.0534   -1.5267    4.6873 C.ar      1 <0>         0.1588
     12 N2          2.1640   -2.0118    5.3859 N.pl3     1 <0>        -0.9288
     13 S1          3.3461   -2.7877    4.5024 S.o2      1 <0>         2.5933
     14 O1          4.4793   -2.8202    5.3592 O.2       1 <0>        -0.9175
     15 O2          2.7374   -3.9924    4.0580 O.2       1 <0>        -0.9108
     16 C11         3.6555   -1.6784    3.0912 C.3       1 <0>        -0.3875
     17 C12         2.2839   -1.8444    6.8363 C.3       1 <0>         0.0807
     18 C13        -2.5871   -0.6933    5.0757 C.2       1 <0>         0.5673
     19 O3         -2.7440   -0.9707    6.2490 O.2       1 <0>        -0.5064
     20 N3         -3.6231   -0.2306    4.3483 N.am      1 <0>        -0.7261
     21 C14        -4.9382   -0.0618    4.9714 C.3       1 <0>         0.1281
     22 H1         -5.0952   -0.8500    5.7078 H         1 <0>         0.1100
     23 C15        -5.0041    1.3018    5.6620 C.3       1 <0>        -0.1022
     24 C16        -4.0164    1.3370    6.7997 C.ar      1 <0>        -0.0777
     25 C17        -4.4029    0.9309    8.0633 C.ar      1 <0>        -0.1063
     26 C18        -3.4969    0.9631    9.1069 C.ar      1 <0>        -0.1113
     27 C19        -2.2044    1.4011    8.8868 C.ar      1 <0>        -0.1111
     28 C20        -1.8177    1.8064    7.6230 C.ar      1 <0>        -0.1093
     29 C21        -2.7224    1.7701    6.5785 C.ar      1 <0>        -0.1041
     30 C22        -6.0253   -0.1429    3.8979 C.3       1 <0>         0.0747
     31 H2         -5.9224   -1.0775    3.3464 H         1 <0>         0.1343
     32 C23        -7.4027   -0.0918    4.5621 C.3       1 <0>        -0.0477
     33 N4         -8.4443   -0.2896    3.5453 N.4       1 <0>        -0.5038
     34 C24        -9.7668   -0.2405    4.1829 C.3       1 <0>         0.0473
     35 C25       -10.8353   -0.4435    3.1398 C.ar      1 <0>        -0.1272
     36 C26       -11.3660    0.6458    2.4734 C.ar      1 <0>        -0.1326
     37 C27       -12.3463    0.4630    1.5160 C.ar      1 <0>        -0.0712
     38 C28       -12.7986   -0.8093    1.2229 C.ar      1 <0>        -0.1762
     39 C29       -12.2679   -1.9035    1.8900 C.ar      1 <0>         0.1377
     40 C30       -11.2797   -1.7178    2.8462 C.ar      1 <0>        -0.1309
     41 O4        -12.7111   -3.1559    1.6035 O.3       1 <0>        -0.3115
     42 C31       -13.7258   -3.2722    0.6040 C.3       1 <0>         0.0218
     43 O5         -5.8892    0.9587    2.9980 O.3       1 <0>        -0.5490
     44 H3          1.0039    1.9031    0.0027 H         1 <0>         0.0553
     45 H4         -0.5459    1.8868   -0.8726 H         1 <0>         0.0586
     46 H5         -0.5289    1.8773    0.9072 H         1 <0>         0.0537
     47 H6         -1.0205   -0.3814    0.0098 H         1 <0>         0.0724
     48 H7          0.5123   -0.3556   -0.8948 H         1 <0>         0.0746
     49 H8          2.7364   -0.7897    0.4738 H         1 <0>         0.1771
     50 H9         -1.9340   -0.1674    2.5065 H         1 <0>         0.1369
     51 H10        -0.3682   -1.5869    6.2672 H         1 <0>         0.1464
     52 H11         4.2084   -2.2111    2.3175 H         1 <0>         0.1605
     53 H12         4.2260   -0.8106    3.4222 H         1 <0>         0.1498
     54 H13         1.8320   -2.6992    7.3394 H         1 <0>         0.0718
     55 H14         3.3373   -1.7779    7.1086 H         1 <0>         0.0965
     56 H15         1.7718   -0.9315    7.1403 H         1 <0>         0.0855
     57 H16        -3.4979   -0.0093    3.4122 H         1 <0>         0.4057
     58 H17        -4.7596    2.0848    4.9442 H         1 <0>         0.0820
     59 H18        -6.0100    1.4649    6.0490 H         1 <0>         0.0790
     60 H19        -5.4127    0.5887    8.2352 H         1 <0>         0.1117
     61 H20        -3.7990    0.6465   10.0942 H         1 <0>         0.1189
     62 H21        -1.4968    1.4270    9.7023 H         1 <0>         0.1192
     63 H22        -0.8080    2.1489    7.4511 H         1 <0>         0.1167
     64 H23        -2.4193    2.0832    5.5903 H         1 <0>         0.1109
     65 H24        -7.4736   -0.8789    5.3128 H         1 <0>         0.1486
     66 H25        -7.5403    0.8786    5.0390 H         1 <0>         0.1422
     67 H26        -8.3787    0.4390    2.8504 H         1 <0>         0.4325
     68 H27        -9.8376   -1.0276    4.9336 H         1 <0>         0.1410
     69 H28        -9.9043    0.7299    4.6599 H         1 <0>         0.1415
     70 H29       -11.0142    1.6411    2.7015 H         1 <0>         0.1337
     71 H30       -12.7592    1.3153    0.9969 H         1 <0>         0.1394
     72 H31       -13.5650   -0.9515    0.4754 H         1 <0>         0.1408
     73 H32       -10.8616   -2.5687    3.3635 H         1 <0>         0.1399
     74 H33       -14.6083   -2.7133    0.9154 H         1 <0>         0.0626
     75 H34       -13.3549   -2.8699   -0.3387 H         1 <0>         0.0620
     76 H35       -13.9881   -4.3220    0.4730 H         1 <0>         0.1109
     77 H36        -5.9700    1.8245    3.4210 H         1 <0>         0.3912
     78 H37        -8.3170   -1.1879    3.1037 H         1 <0>         0.4296
@<TRIPOS>BOND
     1    1    2 1
     2    1   44 1
     3    1   45 1
     4    1   46 1
     5    2    3 1
     6    2   47 1
     7    2   48 1
     8    3    7 1
     9    3    4 2
    10    4    5 1
    11    4   49 1
    12    5   16 1
    13    5    6 1
    14    6   11 ar
    15    6    7 ar
    16    7    8 ar
    17    8    9 ar
    18    8   50 1
    19    9   10 ar
    20    9   18 1
    21   10   11 ar
    22   10   51 1
    23   11   12 1
    24   12   13 1
    25   12   17 1
    26   13   14 2
    27   13   15 2
    28   13   16 1
    29   16   52 1
    30   16   53 1
    31   17   54 1
    32   17   55 1
    33   17   56 1
    34   18   19 2
    35   18   20 am
    36   20   21 1
    37   20   57 1
    38   21   22 1
    39   21   23 1
    40   21   30 1
    41   23   24 1
    42   23   58 1
    43   23   59 1
    44   24   29 ar
    45   24   25 ar
    46   25   26 ar
    47   25   60 1
    48   26   27 ar
    49   26   61 1
    50   27   28 ar
    51   27   62 1
    52   28   29 ar
    53   28   63 1
    54   29   64 1
    55   30   31 1
    56   30   32 1
    57   30   43 1
    58   32   33 1
    59   32   65 1
    60   32   66 1
    61   33   34 1
    62   33   67 1
    63   33   78 1
    64   34   35 1
    65   34   68 1
    66   34   69 1
    67   35   40 ar
    68   35   36 ar
    69   36   37 ar
    70   36   70 1
    71   37   38 ar
    72   37   71 1
    73   38   39 ar
    74   38   72 1
    75   39   40 ar
    76   39   41 1
    77   40   73 1
    78   41   42 1
    79   42   74 1
    80   42   75 1
    81   42   76 1
    82   43   77 1
@<TRIPOS>MOLECULE
CHEMBL231669
   83    85     0     0     0
SMALL
USER_CHARGES

@<TRIPOS>ATOM
      1 C1         -0.0187    1.5258    0.0104 C.3       1 <0>        -0.1591
      2 C2          0.0021   -0.0041    0.0020 C.3       1 <0>        -0.1164
      3 C3          0.7421   -0.5109    1.2415 C.3       1 <0>        -0.1134
      4 C4          0.7628   -2.0407    1.2331 C.3       1 <0>        -0.6075
      5 S1          1.6402   -2.6417    2.7027 S.o2      1 <0>         2.4147
      6 O1          3.0006   -2.2420    2.6088 O.2       1 <0>        -0.9343
      7 O2          0.8908   -2.2774    3.8538 O.2       1 <0>        -0.9175
      8 C5          1.5569   -4.4435    2.5103 C.3       1 <0>        -0.6480
      9 C6          2.2638   -5.1155    3.6891 C.3       1 <0>         0.1589
     10 H1          3.2816   -4.7334    3.7682 H         1 <0>         0.1222
     11 C7          2.3024   -6.6057    3.4684 C.2       1 <0>         0.5128
     12 O3          1.4993   -7.3225    4.0271 O.2       1 <0>        -0.4688
     13 N1          3.2295   -7.1420    2.6503 N.am      1 <0>        -0.7300
     14 C8          3.2671   -8.5907    2.4357 C.3       1 <0>         0.1277
     15 H2          2.9891   -9.1019    3.3575 H         1 <0>         0.1114
     16 C9          2.2827   -8.9677    1.3267 C.3       1 <0>        -0.1039
     17 C10         0.8770   -8.6681    1.7796 C.ar      1 <0>        -0.0233
     18 C11         0.1458   -9.6329    2.4464 C.ar      1 <0>        -0.1604
     19 C12        -1.1461   -9.3588    2.8626 C.ar      1 <0>         0.1411
     20 C13        -1.7051   -8.1178    2.6109 C.ar      1 <0>        -0.1778
     21 C14        -0.9718   -7.1521    1.9434 C.ar      1 <0>         0.1809
     22 C15         0.3218   -7.4267    1.5327 C.ar      1 <0>        -0.1587
     23 F1         -1.5161   -5.9404    1.6971 F         1 <0>        -0.1289
     24 F2         -1.8609  -10.3025    3.5136 F         1 <0>        -0.1329
     25 C16         4.6808   -9.0093    2.0268 C.3       1 <0>         0.0761
     26 H3          5.3932   -8.6621    2.7752 H         1 <0>         0.1352
     27 C17         4.7515  -10.5342    1.9240 C.3       1 <0>        -0.0486
     28 N2          6.1355  -10.9427    1.6491 N.4       1 <0>        -0.5036
     29 C18         6.2034  -12.4068    1.5504 C.3       1 <0>         0.0467
     30 C19         7.6232  -12.8260    1.2683 C.ar      1 <0>        -0.1652
     31 C20         8.0630  -12.9433   -0.0372 C.ar      1 <0>        -0.0979
     32 C21         9.3651  -13.3277   -0.2959 C.ar      1 <0>        -0.1094
     33 C22        10.2281  -13.5945    0.7509 C.ar      1 <0>        -0.0815
     34 C23         9.7887  -13.4763    2.0560 C.ar      1 <0>        -0.0705
     35 C24         8.4874  -13.0876    2.3148 C.ar      1 <0>        -0.0930
     36 C25        10.7292  -13.7674    3.1969 C.3       1 <0>        -0.0953
     37 C26        11.4592  -12.4835    3.5965 C.3       1 <0>        -0.1489
     38 O4          5.0010   -8.4311    0.7599 O.3       1 <0>        -0.5478
     39 N3          1.5353   -4.8237    4.9262 N.am      1 <0>        -0.7264
     40 C27         0.2494   -5.2057    5.0570 C.2       1 <0>         0.5641
     41 O5         -0.3046   -5.7909    4.1506 O.2       1 <0>        -0.5053
     42 C28        -0.5000   -4.9056    6.3295 C.3       1 <0>        -0.1932
     43 C29        -0.8769   -6.0888    7.2232 C.3       1 <0>        -0.1504
     44 C30        -1.9568   -5.3650    6.4165 C.3       1 <0>        -0.1430
     45 H4          1.0039    1.9031    0.0027 H         1 <0>         0.0578
     46 H5         -0.5459    1.8868   -0.8726 H         1 <0>         0.0606
     47 H6         -0.5289    1.8773    0.9072 H         1 <0>         0.0584
     48 H7         -1.0205   -0.3814    0.0098 H         1 <0>         0.0676
     49 H8          0.5123   -0.3556   -0.8948 H         1 <0>         0.0663
     50 H9          1.7647   -0.1336    1.2338 H         1 <0>         0.0811
     51 H10         0.2319   -0.1594    2.1383 H         1 <0>         0.0825
     52 H11        -0.2598   -2.4180    1.2409 H         1 <0>         0.1358
     53 H12         1.2730   -2.3923    0.3363 H         1 <0>         0.1324
     54 H13         0.5137   -4.7584    2.4849 H         1 <0>         0.1643
     55 H14         2.0465   -4.7326    1.5803 H         1 <0>         0.1401
     56 H15         3.8719   -6.5688    2.2035 H         1 <0>         0.4076
     57 H16         2.5067   -8.3896    0.4302 H         1 <0>         0.0888
     58 H17         2.3743  -10.0311    1.1057 H         1 <0>         0.0864
     59 H18         0.5822  -10.6012    2.6426 H         1 <0>         0.1298
     60 H19        -2.7128   -7.9033    2.9348 H         1 <0>         0.1426
     61 H20         0.8958   -6.6718    1.0158 H         1 <0>         0.1263
     62 H21         4.4217  -10.9774    2.8636 H         1 <0>         0.1482
     63 H22         4.1048  -10.8742    1.1151 H         1 <0>         0.1421
     64 H23         6.4408  -10.5325    0.7793 H         1 <0>         0.4323
     65 H24         5.8736  -12.8501    2.4900 H         1 <0>         0.1386
     66 H25         5.5567  -12.7469    0.7415 H         1 <0>         0.1387
     67 H26         7.3889  -12.7350   -0.8549 H         1 <0>         0.1308
     68 H27         9.7084  -13.4201   -1.3157 H         1 <0>         0.1366
     69 H28        11.2454  -13.8955    0.5488 H         1 <0>         0.1352
     70 H29         8.1452  -12.9916    3.3346 H         1 <0>         0.1304
     71 H30        10.1619  -14.1429    4.0486 H         1 <0>         0.0779
     72 H31        11.4566  -14.5172    2.8859 H         1 <0>         0.0813
     73 H32        12.1395  -12.6942    4.4217 H         1 <0>         0.0670
     74 H33        12.0265  -12.1081    2.7448 H         1 <0>         0.0585
     75 H34        10.7318  -11.7337    3.9075 H         1 <0>         0.0534
     76 H35         4.4067   -8.6967    0.0448 H         1 <0>         0.3913
     77 H36         1.9783   -4.3557    5.6511 H         1 <0>         0.4141
     78 H37        -0.2380   -3.9678    6.8195 H         1 <0>         0.1259
     79 H38        -0.5828   -7.0844    6.8908 H         1 <0>         0.0979
     80 H39        -0.8627   -5.9298    8.3015 H         1 <0>         0.1031
     81 H40        -2.6531   -4.7297    6.9640 H         1 <0>         0.1035
     82 H41        -2.3732   -5.8844    5.5534 H         1 <0>         0.1058
     83 H42         6.7341  -10.6280    2.3978 H         1 <0>         0.4286
@<TRIPOS>BOND
     1    1    2 1
     2    1   45 1
     3    1   46 1
     4    1   47 1
     5    2    3 1
     6    2   48 1
     7    2   49 1
     8    3    4 1
     9    3   50 1
    10    3   51 1
    11    4    5 1
    12    4   52 1
    13    4   53 1
    14    5    6 2
    15    5    7 2
    16    5    8 1
    17    8    9 1
    18    8   54 1
    19    8   55 1
    20    9   10 1
    21    9   11 1
    22    9   39 1
    23   11   12 2
    24   11   13 am
    25   13   14 1
    26   13   56 1
    27   14   15 1
    28   14   16 1
    29   14   25 1
    30   16   17 1
    31   16   57 1
    32   16   58 1
    33   17   22 ar
    34   17   18 ar
    35   18   19 ar
    36   18   59 1
    37   19   20 ar
    38   19   24 1
    39   20   21 ar
    40   20   60 1
    41   21   22 ar
    42   21   23 1
    43   22   61 1
    44   25   26 1
    45   25   27 1
    46   25   38 1
    47   27   28 1
    48   27   62 1
    49   27   63 1
    50   28   29 1
    51   28   64 1
    52   28   83 1
    53   29   30 1
    54   29   65 1
    55   29   66 1
    56   30   35 ar
    57   30   31 ar
    58   31   32 ar
    59   31   67 1
    60   32   33 ar
    61   32   68 1
    62   33   34 ar
    63   33   69 1
    64   34   35 ar
    65   34   36 1
    66   35   70 1
    67   36   37 1
    68   36   71 1
    69   36   72 1
    70   37   73 1
    71   37   74 1
    72   37   75 1
    73   38   76 1
    74   39   40 am
    75   39   77 1
    76   40   41 2
    77   40   42 1
    78   42   44 1
    79   42   43 1
    80   42   78 1
    81   43   44 1
    82   43   79 1
    83   43   80 1
    84   44   81 1
    85   44   82 1
@<TRIPOS>MOLECULE
CHEMBL1210433
   67    70     0     0     0
SMALL
USER_CHARGES

@<TRIPOS>ATOM
      1 C1          3.4700    0.7165   -1.5671 C.3       1 <0>        -0.6701
      2 S1          1.7533    1.0389   -1.0773 S.o2      1 <0>         2.5901
      3 O1          1.6833    1.3007    0.3176 O.2       1 <0>        -0.9317
      4 O2          1.1342    1.9135   -2.0106 O.2       1 <0>        -0.9361
      5 N1          0.9752   -0.4095   -1.2751 N.pl3     1 <0>        -0.8964
      6 C2          1.0123   -1.3669   -0.2583 C.ar      1 <0>         0.1128
      7 C3          0.4729   -1.0789    0.9892 C.ar      1 <0>        -0.0969
      8 C4          0.5109   -2.0278    1.9918 C.ar      1 <0>        -0.1068
      9 C5          1.0852   -3.2634    1.7553 C.ar      1 <0>        -0.1066
     10 C6          1.6230   -3.5534    0.5147 C.ar      1 <0>        -0.1123
     11 C7          1.5834   -2.6112   -0.4942 C.ar      1 <0>        -0.1115
     12 C8          0.2815   -0.6740   -2.4590 C.ar      1 <0>         0.1519
     13 C9         -1.0752   -0.9754   -2.4174 C.ar      1 <0>        -0.0809
     14 C10        -1.7656   -1.2378   -3.5854 C.ar      1 <0>        -0.1045
     15 C11        -1.1131   -1.2024   -4.8013 C.ar      1 <0>        -0.0902
     16 C12         0.2489   -0.9013   -4.8540 C.ar      1 <0>        -0.1190
     17 C13         0.9447   -0.6304   -3.6758 C.ar      1 <0>        -0.0730
     18 C14         0.9503   -0.8632   -6.1552 C.2       1 <0>         0.5666
     19 O3          2.1363   -0.6008   -6.1988 O.2       1 <0>        -0.5042
     20 N2          0.2745   -1.1196   -7.2927 N.am      1 <0>        -0.7241
     21 C15         0.9694   -1.0819   -8.5819 C.3       1 <0>         0.1278
     22 H1          1.7310   -0.3023   -8.5614 H         1 <0>         0.1105
     23 C16         1.6322   -2.4357   -8.8437 C.3       1 <0>        -0.1023
     24 C17         2.7092   -2.6747   -7.8171 C.ar      1 <0>        -0.0784
     25 C18         4.0019   -2.2492   -8.0596 C.ar      1 <0>        -0.1060
     26 C19         4.9899   -2.4683   -7.1179 C.ar      1 <0>        -0.1110
     27 C20         4.6850   -3.1126   -5.9335 C.ar      1 <0>        -0.1116
     28 C21         3.3922   -3.5373   -5.6906 C.ar      1 <0>        -0.1100
     29 C22         2.4033   -3.3143   -6.6304 C.ar      1 <0>        -0.1056
     30 C23        -0.0368   -0.7828   -9.6951 C.3       1 <0>         0.0741
     31 H2         -0.5724    0.1377   -9.4630 H         1 <0>         0.1339
     32 C24         0.7054   -0.6200  -11.0231 C.3       1 <0>        -0.0409
     33 N3         -0.2443   -0.2155  -12.0683 N.4       1 <0>        -0.4745
     34 C25         0.4683   -0.0592  -13.3434 C.3       1 <0>        -0.0864
     35 C26         0.5047    1.3380  -13.9657 C.3       1 <0>        -0.1539
     36 C27        -0.3684    0.2462  -14.5874 C.3       1 <0>        -0.1530
     37 O4         -0.9674   -1.8623   -9.7986 O.3       1 <0>        -0.5497
     38 H3          3.8470   -0.1488   -1.0218 H         1 <0>         0.1338
     39 H4          3.5110    0.5173   -2.6379 H         1 <0>         0.1307
     40 H5          4.0835    1.5872   -1.3357 H         1 <0>         0.1373
     41 H6          0.0249   -0.1139    1.1748 H         1 <0>         0.1375
     42 H7          0.0918   -1.8046    2.9618 H         1 <0>         0.1332
     43 H8          1.1142   -4.0034    2.5414 H         1 <0>         0.1297
     44 H9          2.0711   -4.5192    0.3335 H         1 <0>         0.1297
     45 H10         1.9995   -2.8400   -1.4642 H         1 <0>         0.1258
     46 H11        -1.5912   -1.0050   -1.4690 H         1 <0>         0.1371
     47 H12        -2.8193   -1.4717   -3.5468 H         1 <0>         0.1393
     48 H13        -1.6562   -1.4081   -5.7118 H         1 <0>         0.1283
     49 H14         1.9975   -0.3920   -3.7109 H         1 <0>         0.1350
     50 H15        -0.6720   -1.3290   -7.2579 H         1 <0>         0.4068
     51 H16         0.8842   -3.2256   -8.7762 H         1 <0>         0.0827
     52 H17         2.0735   -2.4375   -9.8404 H         1 <0>         0.0797
     53 H18         4.2401   -1.7458   -8.9850 H         1 <0>         0.1122
     54 H19         6.0000   -2.1365   -7.3077 H         1 <0>         0.1197
     55 H20         5.4570   -3.2845   -5.1980 H         1 <0>         0.1198
     56 H21         3.1541   -4.0410   -4.7653 H         1 <0>         0.1177
     57 H22         1.3924   -3.6428   -6.4391 H         1 <0>         0.1112
     58 H23         1.4762    0.1434  -10.9173 H         1 <0>         0.1477
     59 H24         1.1679   -1.5676  -11.2993 H         1 <0>         0.1414
     60 H25        -0.9578   -0.9222  -12.1662 H         1 <0>         0.4333
     61 H26         1.3478   -0.6904  -13.4709 H         1 <0>         0.1779
     62 H27        -0.0000    2.1413  -13.4289 H         1 <0>         0.1220
     63 H28         1.4084    1.6264  -14.5026 H         1 <0>         0.1345
     64 H29        -0.0391   -0.1837  -15.5334 H         1 <0>         0.1349
     65 H30        -1.4475    0.3312  -14.4597 H         1 <0>         0.1222
     66 H31        -0.5596   -2.7148  -10.0040 H         1 <0>         0.3921
     67 H32        -0.6724    0.6616  -11.8126 H         1 <0>         0.4269
@<TRIPOS>BOND
     1    1    2 1
     2    1   38 1
     3    1   39 1
     4    1   40 1
     5    2    3 2
     6    2    4 2
     7    2    5 1
     8    5    6 1
     9    5   12 1
    10    6   11 ar
    11    6    7 ar
    12    7    8 ar
    13    7   41 1
    14    8    9 ar
    15    8   42 1
    16    9   10 ar
    17    9   43 1
    18   10   11 ar
    19   10   44 1
    20   11   45 1
    21   12   17 ar
    22   12   13 ar
    23   13   14 ar
    24   13   46 1
    25   14   15 ar
    26   14   47 1
    27   15   16 ar
    28   15   48 1
    29   16   17 ar
    30   16   18 1
    31   17   49 1
    32   18   19 2
    33   18   20 am
    34   20   21 1
    35   20   50 1
    36   21   22 1
    37   21   23 1
    38   21   30 1
    39   23   24 1
    40   23   51 1
    41   23   52 1
    42   24   29 ar
    43   24   25 ar
    44   25   26 ar
    45   25   53 1
    46   26   27 ar
    47   26   54 1
    48   27   28 ar
    49   27   55 1
    50   28   29 ar
    51   28   56 1
    52   29   57 1
    53   30   31 1
    54   30   32 1
    55   30   37 1
    56   32   33 1
    57   32   58 1
    58   32   59 1
    59   33   34 1
    60   33   60 1
    61   33   67 1
    62   34   36 1
    63   34   35 1
    64   34   61 1
    65   35   36 1
    66   35   62 1
    67   35   63 1
    68   36   64 1
    69   36   65 1
    70   37   66 1
@<TRIPOS>MOLECULE
CHEMBL404341
   62    65     0     0     0
SMALL
USER_CHARGES

@<TRIPOS>ATOM
      1 C1          0.7786   -2.7608   -2.7642 C.3       1 <0>        -0.1507
      2 C2          0.6554   -2.0006   -1.4422 C.3       1 <0>        -0.1237
      3 C3          1.3141   -2.8114   -0.3243 C.3       1 <0>         0.0574
      4 O1          1.1990   -2.1013    0.9105 O.3       1 <0>        -0.3147
      5 C4          1.7367   -2.6880    2.0120 C.ar      1 <0>         0.1311
      6 C5          2.3671   -3.9203    1.9020 C.ar      1 <0>        -0.1998
      7 C6          2.9135   -4.5192    3.0169 C.ar      1 <0>        -0.0837
      8 C7          2.8327   -3.8845    4.2581 C.ar      1 <0>        -0.0544
      9 C8          2.1983   -2.6451    4.3642 C.ar      1 <0>        -0.0592
     10 C9          1.6592   -2.0508    3.2433 C.ar      1 <0>        -0.1456
     11 C10         3.4166   -4.5229    5.4560 C.2       1 <0>         0.0814
     12 C11         3.8076   -3.8812    6.5952 C.2       1 <0>        -0.1772
     13 C12         4.3029   -4.8478    7.4776 C.2       1 <0>        -0.1502
     14 C13         4.2045   -6.0605    6.8598 C.2       1 <0>         0.0496
     15 N1          3.6540   -5.8639    5.6183 N.pl3     1 <0>        -0.4156
     16 C14         3.3709   -6.9093    4.6317 C.3       1 <0>         0.0734
     17 C15         4.6051   -7.1689    3.8068 C.2       1 <0>         0.4912
     18 O2          5.6233   -6.5411    4.0223 O.2       1 <0>        -0.5077
     19 N2          4.5802   -8.0861    2.8420 N.2       1 <0>        -0.7003
     20 C16         5.5000   -9.0421    2.8113 C.2       1 <0>         0.7063
     21 N3          5.5460   -9.9097    1.7620 N.pl3     1 <0>        -0.8213
     22 N4          6.3982   -9.1561    3.8292 N.pl3     1 <0>        -0.7349
     23 C17         7.4777  -10.1430    3.7466 C.3       1 <0>         0.1913
     24 C18         8.3251  -10.0660    4.9904 C.2       1 <0>        -0.0494
     25 C19         8.1304  -10.7703    6.1197 C.2       1 <0>        -0.1680
     26 C20         9.1503  -10.3887    7.0214 C.2       1 <0>        -0.2170
     27 C21         9.9073   -9.4740    6.3891 C.2       1 <0>        -0.0157
     28 O3          9.4061   -9.2868    5.1572 O.3       1 <0>        -0.1669
     29 C22         4.6144   -7.3602    7.4306 C.ar      1 <0>        -0.0061
     30 C23         3.7344   -8.4440    7.4102 C.ar      1 <0>        -0.1109
     31 C24         4.1235   -9.6547    7.9443 C.ar      1 <0>        -0.1121
     32 C25         5.3828   -9.7972    8.5004 C.ar      1 <0>        -0.1057
     33 C26         6.2604   -8.7282    8.5245 C.ar      1 <0>        -0.1020
     34 C27         5.8864   -7.5120    7.9882 C.ar      1 <0>        -0.0173
     35 Cl1         6.9913   -6.1732    8.0127 Cl        1 <0>        -0.0500
     36 H1          0.2822   -3.7272   -2.6752 H         1 <0>         0.0578
     37 H2          0.3094   -2.1832   -3.5606 H         1 <0>         0.0655
     38 H3          1.8321   -2.9138   -2.9985 H         1 <0>         0.0577
     39 H4          1.1518   -1.0343   -1.5311 H         1 <0>         0.0739
     40 H5         -0.3980   -1.8477   -1.2078 H         1 <0>         0.0740
     41 H6          0.8177   -3.7777   -0.2353 H         1 <0>         0.0626
     42 H7          2.3676   -2.9643   -0.5586 H         1 <0>         0.0622
     43 H8          2.4291   -4.4105    0.9416 H         1 <0>         0.1289
     44 H9          3.4030   -5.4780    2.9307 H         1 <0>         0.1243
     45 H10         2.1334   -2.1511    5.3224 H         1 <0>         0.1366
     46 H11         1.1719   -1.0903    3.3237 H         1 <0>         0.1354
     47 H12         3.7463   -2.8192    6.7818 H         1 <0>         0.1412
     48 H13         4.6926   -4.6667    8.4684 H         1 <0>         0.1388
     49 H14         3.0785   -7.8247    5.1461 H         1 <0>         0.1147
     50 H15         2.5602   -6.5838    3.9800 H         1 <0>         0.1247
     51 H16         4.9065   -9.8285    1.0372 H         1 <0>         0.4271
     52 H17         6.2183  -10.6085    1.7396 H         1 <0>         0.4111
     53 H18         6.3230   -8.5837    4.6088 H         1 <0>         0.4230
     54 H19         7.0506  -11.1421    3.6591 H         1 <0>         0.0998
     55 H20         8.0949   -9.9340    2.8728 H         1 <0>         0.0884
     56 H21         7.3452  -11.4889    6.3028 H         1 <0>         0.1492
     57 H22         9.2939  -10.7600    8.0253 H         1 <0>         0.1519
     58 H23        10.7735   -8.9775    6.8008 H         1 <0>         0.2054
     59 H24         2.7510   -8.3346    6.9773 H         1 <0>         0.1280
     60 H25         3.4435  -10.4936    7.9289 H         1 <0>         0.1303
     61 H26         5.6816  -10.7474    8.9177 H         1 <0>         0.1317
     62 H27         7.2415   -8.8462    8.9603 H         1 <0>         0.1340
@<TRIPOS>BOND
     1    1    2 1
     2    1   36 1
     3    1   37 1
     4    1   38 1
     5    2    3 1
     6    2   39 1
     7    2   40 1
     8    3    4 1
     9    3   41 1
    10    3   42 1
    11    4    5 1
    12    5   10 ar
    13    5    6 ar
    14    6    7 ar
    15    6   43 1
    16    7    8 ar
    17    7   44 1
    18    8    9 ar
    19    8   11 1
    20    9   10 ar
    21    9   45 1
    22   10   46 1
    23   11   15 1
    24   11   12 2
    25   12   13 1
    26   12   47 1
    27   13   14 2
    28   13   48 1
    29   14   15 1
    30   14   29 1
    31   15   16 1
    32   16   17 1
    33   16   49 1
    34   16   50 1
    35   17   18 2
    36   17   19 1
    37   19   20 2
    38   20   21 1
    39   20   22 1
    40   21   51 1
    41   21   52 1
    42   22   23 1
    43   22   53 1
    44   23   24 1
    45   23   54 1
    46   23   55 1
    47   24   28 1
    48   24   25 2
    49   25   26 1
    50   25   56 1
    51   26   27 2
    52   26   57 1
    53   27   28 1
    54   27   58 1
    55   29   34 ar
    56   29   30 ar
    57   30   31 ar
    58   30   59 1
    59   31   32 ar
    60   31   60 1
    61   32   33 ar
    62   32   61 1
    63   33   34 ar
    64   33   62 1
    65   34   35 1
@<TRIPOS>MOLECULE
CHEMBL404341__1
   62    65     0     0     0
SMALL
USER_CHARGES

@<TRIPOS>ATOM
      1 C1          0.7596   -2.3494   -2.5951 C.3       1 <0>        -0.1507
      2 C2          0.6736   -1.6217   -1.2520 C.3       1 <0>        -0.1237
      3 C3          1.3343   -2.4742   -0.1668 C.3       1 <0>         0.0573
      4 O1          1.2540   -1.7946    1.0876 O.3       1 <0>        -0.3146
      5 C4          1.7980   -2.4204    2.1642 C.ar      1 <0>         0.1313
      6 C5          2.4016   -3.6616    2.0117 C.ar      1 <0>        -0.1999
      7 C6          2.9542   -4.3001    3.1013 C.ar      1 <0>        -0.0836
      8 C7          2.9068   -3.6967    4.3597 C.ar      1 <0>        -0.0549
      9 C8          2.2993   -2.4482    4.5086 C.ar      1 <0>        -0.0589
     10 C9          1.7537   -1.8143    3.4128 C.ar      1 <0>        -0.1456
     11 C10         3.4975   -4.3776    5.5305 C.2       1 <0>         0.0817
     12 C11         3.9260   -3.7730    6.6765 C.2       1 <0>        -0.1772
     13 C12         4.4140   -4.7722    7.5260 C.2       1 <0>        -0.1495
     14 C13         4.2739   -5.9670    6.8820 C.2       1 <0>         0.0485
     15 N1          3.7048   -5.7274    5.6565 N.pl3     1 <0>        -0.4156
     16 C14         3.3772   -6.7417    4.6515 C.3       1 <0>         0.0728
     17 C15         4.5950   -7.0280    3.8113 C.2       1 <0>         0.4934
     18 O2          5.6365   -6.4413    4.0309 O.2       1 <0>        -0.5094
     19 N2          4.5300   -7.9238    2.8283 N.2       1 <0>        -0.7013
     20 C16         5.4142   -8.9117    2.7714 C.2       1 <0>         0.7088
     21 N3          6.3113   -9.0820    3.7824 N.pl3     1 <0>        -0.8585
     22 N4          5.4248   -9.7556    1.7020 N.pl3     1 <0>        -0.6999
     23 C17         6.4009  -10.8462    1.6392 C.3       1 <0>         0.1984
     24 C18         6.2018  -11.6257    0.3649 C.2       1 <0>        -0.0510
     25 C19         6.8048  -11.3774   -0.8116 C.2       1 <0>        -0.1688
     26 C20         6.3307  -12.3448   -1.7271 C.2       1 <0>        -0.2188
     27 C21         5.4663  -13.1265   -1.0553 C.2       1 <0>        -0.0174
     28 O3          5.3966  -12.6898    0.2128 O.3       1 <0>        -0.1697
     29 C22         4.6623   -7.2895    7.4140 C.ar      1 <0>        -0.0053
     30 C23         3.7554   -8.3508    7.3858 C.ar      1 <0>        -0.1098
     31 C24         4.1247   -9.5830    7.8836 C.ar      1 <0>        -0.1117
     32 C25         5.3906   -9.7694    8.4108 C.ar      1 <0>        -0.1075
     33 C26         6.2948   -8.7230    8.4423 C.ar      1 <0>        -0.1095
     34 C27         5.9408   -7.4855    7.9422 C.ar      1 <0>        -0.0194
     35 Cl1         7.0789   -6.1751    7.9758 Cl        1 <0>        -0.0485
     36 H1          0.2454   -3.3077   -2.5227 H         1 <0>         0.0578
     37 H2          0.2888   -1.7420   -3.3682 H         1 <0>         0.0655
     38 H3          1.8057   -2.5167   -2.8513 H         1 <0>         0.0577
     39 H4          1.1877   -0.6633   -1.3244 H         1 <0>         0.0740
     40 H5         -0.3726   -1.4543   -0.9957 H         1 <0>         0.0740
     41 H6          0.8201   -3.4326   -0.0944 H         1 <0>         0.0626
     42 H7          2.3804   -2.6416   -0.4231 H         1 <0>         0.0622
     43 H8          2.4378   -4.1276    1.0380 H         1 <0>         0.1289
     44 H9          3.4229   -5.2657    2.9819 H         1 <0>         0.1244
     45 H10         2.2602   -1.9783    5.4802 H         1 <0>         0.1368
     46 H11         1.2872   -0.8469    3.5263 H         1 <0>         0.1354
     47 H12         3.8945   -2.7146    6.8892 H         1 <0>         0.1414
     48 H13         4.8270   -4.6244    8.5130 H         1 <0>         0.1392
     49 H14         3.0561   -7.6565    5.1496 H         1 <0>         0.1149
     50 H15         2.5736   -6.3744    4.0132 H         1 <0>         0.1251
     51 H16         6.2526   -8.5336    4.5804 H         1 <0>         0.4207
     52 H17         7.0087   -9.7517    3.7043 H         1 <0>         0.4026
     53 H18         4.7860   -9.6343    0.9821 H         1 <0>         0.4282
     54 H19         7.4093  -10.4329    1.6585 H         1 <0>         0.1017
     55 H20         6.2627  -11.5072    2.4948 H         1 <0>         0.0895
     56 H21         7.5144  -10.5897   -1.0174 H         1 <0>         0.1531
     57 H22         6.6088  -12.4380   -2.7665 H         1 <0>         0.1539
     58 H23         4.9236  -13.9654   -1.4652 H         1 <0>         0.2085
     59 H24         2.7668   -8.2070    6.9754 H         1 <0>         0.1289
     60 H25         3.4238  -10.4045    7.8623 H         1 <0>         0.1313
     61 H26         5.6738  -10.7363    8.7998 H         1 <0>         0.1336
     62 H27         7.2810   -8.8752    8.8555 H         1 <0>         0.1368
@<TRIPOS>BOND
     1    1    2 1
     2    1   36 1
     3    1   37 1
     4    1   38 1
     5    2    3 1
     6    2   39 1
     7    2   40 1
     8    3    4 1
     9    3   41 1
    10    3   42 1
    11    4    5 1
    12    5   10 ar
    13    5    6 ar
    14    6    7 ar
    15    6   43 1
    16    7    8 ar
    17    7   44 1
    18    8    9 ar
    19    8   11 1
    20    9   10 ar
    21    9   45 1
    22   10   46 1
    23   11   15 1
    24   11   12 2
    25   12   13 1
    26   12   47 1
    27   13   14 2
    28   13   48 1
    29   14   15 1
    30   14   29 1
    31   15   16 1
    32   16   17 1
    33   16   49 1
    34   16   50 1
    35   17   18 2
    36   17   19 1
    37   19   20 2
    38   20   21 1
    39   20   22 1
    40   21   51 1
    41   21   52 1
    42   22   23 1
    43   22   53 1
    44   23   24 1
    45   23   54 1
    46   23   55 1
    47   24   28 1
    48   24   25 2
    49   25   26 1
    50   25   56 1
    51   26   27 2
    52   26   57 1
    53   27   28 1
    54   27   58 1
    55   29   34 ar
    56   29   30 ar
    57   30   31 ar
    58   30   59 1
    59   31   32 ar
    60   31   60 1
    61   32   33 ar
    62   32   61 1
    63   33   34 ar
    64   33   62 1
    65   34   35 1
@<TRIPOS>MOLECULE
CHEMBL1097347
   79    82     0     0     0
SMALL
USER_CHARGES

@<TRIPOS>ATOM
      1 C1         -0.0187    1.5258    0.0104 C.3       1 <0>        -0.1526
      2 C2          0.0021   -0.0041    0.0020 C.3       1 <0>        -0.1214
      3 C3         -1.4333   -0.5336    0.0129 C.3       1 <0>        -0.1371
      4 C4         -1.4126   -2.0635    0.0045 C.3       1 <0>         0.1265
      5 N1         -2.7870   -2.5706    0.0149 N.am      1 <0>        -0.6170
      6 C5         -3.5543   -2.8583    1.2324 C.3       1 <0>         0.1179
      7 C6         -4.7280   -3.7539    0.7779 C.3       1 <0>        -0.1256
      8 C7         -4.8765   -3.3495   -0.7072 C.3       1 <0>        -0.1479
      9 C8         -3.5093   -2.8267   -1.0895 C.2       1 <0>         0.5207
     10 O1         -3.1205   -2.6647   -2.2268 O.2       1 <0>        -0.5242
     11 C9         -5.9811   -3.4347    1.5517 C.2       1 <0>         0.5262
     12 O2         -5.9655   -2.5688    2.4007 O.2       1 <0>        -0.5120
     13 N2         -7.1192   -4.1115    1.3002 N.am      1 <0>        -0.7220
     14 C10        -8.3374   -3.8011    2.0525 C.3       1 <0>         0.1273
     15 H1         -8.0743   -3.5338    3.0759 H         1 <0>         0.1216
     16 C11        -9.0615   -2.6279    1.3891 C.3       1 <0>        -0.1042
     17 C12        -8.2069   -1.3905    1.4861 C.ar      1 <0>        -0.0018
     18 C13        -8.3261   -0.5529    2.5790 C.ar      1 <0>        -0.1466
     19 C14        -7.5417    0.5847    2.6690 C.ar      1 <0>         0.1400
     20 C15        -6.6376    0.8826    1.6642 C.ar      1 <0>        -0.1944
     21 C16        -6.5187    0.0428    0.5703 C.ar      1 <0>         0.1364
     22 C17        -7.3005   -1.0970    0.4849 C.ar      1 <0>        -0.1636
     23 F1         -5.6366    0.3323   -0.4112 F         1 <0>        -0.1325
     24 F2         -7.6591    1.4037    3.7370 F         1 <0>        -0.1326
     25 C18        -9.2549   -5.0254    2.0650 C.3       1 <0>         0.1095
     26 H2         -8.7095   -5.8843    2.4562 H         1 <0>         0.1126
     27 C19       -10.4685   -4.7443    2.9533 C.3       1 <0>         0.0450
     28 H3        -11.0142   -3.8855    2.5624 H         1 <0>         0.0981
     29 C20       -11.3871   -5.9707    2.9672 C.3       1 <0>         0.0887
     30 N3        -12.4649   -5.7361    3.9402 N.pl3     1 <0>        -0.9986
     31 C21       -12.0954   -5.3113    5.2990 C.3       1 <0>         0.0753
     32 C22       -11.1489   -4.1109    5.1932 C.3       1 <0>         0.0491
     33 N4        -10.0182   -4.4574    4.3219 N.3       1 <0>        -0.6699
     34 S1        -14.0523   -5.9442    3.5168 S.o2      1 <0>         2.6900
     35 O3        -14.8181   -5.1430    4.4060 O.2       1 <0>        -0.9513
     36 O4        -14.1193   -5.7931    2.1054 O.2       1 <0>        -0.9504
     37 C23       -14.4686   -7.6207    3.8641 C.ar      1 <0>        -0.6739
     38 C24       -14.2907   -8.5919    2.8963 C.ar      1 <0>        -0.0275
     39 C25       -14.6172   -9.9070    3.1686 C.ar      1 <0>        -0.1339
     40 C26       -15.1214  -10.2514    4.4091 C.ar      1 <0>        -0.0639
     41 C27       -15.2984   -9.2807    5.3769 C.ar      1 <0>        -0.1039
     42 C28       -14.9677   -7.9659    5.1059 C.ar      1 <0>        -0.0234
     43 C29       -15.8484   -9.6560    6.7288 C.3       1 <0>        -0.1190
     44 O5         -9.6935   -5.3056    0.7341 O.3       1 <0>        -0.5521
     45 H4          1.0039    1.9031    0.0027 H         1 <0>         0.0554
     46 H5         -0.5459    1.8868   -0.8726 H         1 <0>         0.0543
     47 H6         -0.5289    1.8773    0.9072 H         1 <0>         0.0536
     48 H7          0.5123   -0.3556   -0.8948 H         1 <0>         0.0639
     49 H8          0.5293   -0.3651    0.8851 H         1 <0>         0.0628
     50 H9         -1.9435   -0.1821    0.9097 H         1 <0>         0.0648
     51 H10        -1.9605   -0.1726   -0.8702 H         1 <0>         0.0672
     52 H11        -0.9024   -2.4150   -0.8923 H         1 <0>         0.0837
     53 H12        -0.8854   -2.4246    0.8875 H         1 <0>         0.0798
     54 H13        -2.9325   -3.3886    1.9537 H         1 <0>         0.0844
     55 H14        -3.9323   -1.9331    1.6674 H         1 <0>         0.0909
     56 H15        -4.4720   -4.8094    0.8710 H         1 <0>         0.1182
     57 H16        -5.1401   -4.2158   -1.3140 H         1 <0>         0.1116
     58 H17        -5.6249   -2.5645   -0.8158 H         1 <0>         0.1058
     59 H18        -7.1317   -4.8040    0.6212 H         1 <0>         0.4057
     60 H19        -9.2458   -2.8609    0.3403 H         1 <0>         0.0832
     61 H20       -10.0112   -2.4542    1.8950 H         1 <0>         0.0941
     62 H21        -9.0316   -0.7855    3.3629 H         1 <0>         0.1396
     63 H22        -6.0256    1.7698    1.7334 H         1 <0>         0.1428
     64 H23        -7.2048   -1.7547   -0.3664 H         1 <0>         0.1315
     65 H24       -11.8148   -6.1191    1.9757 H         1 <0>         0.1072
     66 H25       -10.8163   -6.8524    3.2586 H         1 <0>         0.0734
     67 H26       -12.9915   -5.0238    5.8490 H         1 <0>         0.1017
     68 H27       -11.5928   -6.1297    5.8145 H         1 <0>         0.0726
     69 H28       -11.6853   -3.2608    4.7716 H         1 <0>         0.0834
     70 H29       -10.7779   -3.8518    6.1848 H         1 <0>         0.0966
     71 H30        -9.4949   -5.2327    4.7003 H         1 <0>         0.3457
     72 H31       -13.8968   -8.3229    1.9273 H         1 <0>         0.1392
     73 H32       -14.4789  -10.6655    2.4124 H         1 <0>         0.1350
     74 H33       -15.3772  -11.2789    4.6217 H         1 <0>         0.1323
     75 H34       -15.1025   -7.2080    5.8634 H         1 <0>         0.1384
     76 H35       -15.0264   -9.9134    7.3968 H         1 <0>         0.0751
     77 H36       -16.4024   -8.8133    7.1424 H         1 <0>         0.0720
     78 H37       -16.5142  -10.5128    6.6251 H         1 <0>         0.0715
     79 H38       -10.1872   -4.5832    0.3224 H         1 <0>         0.3809
@<TRIPOS>BOND
     1    1    2 1
     2    1   45 1
     3    1   46 1
     4    1   47 1
     5    2    3 1
     6    2   48 1
     7    2   49 1
     8    3    4 1
     9    3   50 1
    10    3   51 1
    11    4    5 1
    12    4   52 1
    13    4   53 1
    14    5    9 am
    15    5    6 1
    16    6    7 1
    17    6   54 1
    18    6   55 1
    19    7    8 1
    20    7   11 1
    21    7   56 1
    22    8    9 1
    23    8   57 1
    24    8   58 1
    25    9   10 2
    26   11   12 2
    27   11   13 am
    28   13   14 1
    29   13   59 1
    30   14   15 1
    31   14   16 1
    32   14   25 1
    33   16   17 1
    34   16   60 1
    35   16   61 1
    36   17   22 ar
    37   17   18 ar
    38   18   19 ar
    39   18   62 1
    40   19   20 ar
    41   19   24 1
    42   20   21 ar
    43   20   63 1
    44   21   22 ar
    45   21   23 1
    46   22   64 1
    47   25   26 1
    48   25   27 1
    49   25   44 1
    50   27   28 1
    51   27   33 1
    52   27   29 1
    53   29   30 1
    54   29   65 1
    55   29   66 1
    56   30   31 1
    57   30   34 1
    58   31   32 1
    59   31   67 1
    60   31   68 1
    61   32   33 1
    62   32   69 1
    63   32   70 1
    64   33   71 1
    65   34   35 2
    66   34   36 2
    67   34   37 1
    68   37   42 ar
    69   37   38 ar
    70   38   39 ar
    71   38   72 1
    72   39   40 ar
    73   39   73 1
    74   40   41 ar
    75   40   74 1
    76   41   42 ar
    77   41   43 1
    78   42   75 1
    79   43   76 1
    80   43   77 1
    81   43   78 1
    82   44   79 1
@<TRIPOS>MOLECULE
CHEMBL1097347__1
   80    83     0     0     0
SMALL
USER_CHARGES

@<TRIPOS>ATOM
      1 C1         -0.0187    1.5258    0.0104 C.3       1 <0>        -0.1531
      2 C2          0.0021   -0.0041    0.0020 C.3       1 <0>        -0.1225
      3 C3         -1.4333   -0.5336    0.0129 C.3       1 <0>        -0.1358
      4 C4         -1.4126   -2.0635    0.0045 C.3       1 <0>         0.1251
      5 N1         -2.7870   -2.5706    0.0149 N.am      1 <0>        -0.6169
      6 C5         -3.5543   -2.8583    1.2324 C.3       1 <0>         0.1182
      7 C6         -4.7280   -3.7539    0.7779 C.3       1 <0>        -0.1259
      8 C7         -4.8765   -3.3495   -0.7072 C.3       1 <0>        -0.1481
      9 C8         -3.5093   -2.8267   -1.0895 C.2       1 <0>         0.5183
     10 O1         -3.1205   -2.6647   -2.2268 O.2       1 <0>        -0.5150
     11 C9         -5.9811   -3.4347    1.5517 C.2       1 <0>         0.5324
     12 O2         -5.9655   -2.5688    2.4007 O.2       1 <0>        -0.5079
     13 N2         -7.1192   -4.1115    1.3002 N.am      1 <0>        -0.7207
     14 C10        -8.3374   -3.8011    2.0525 C.3       1 <0>         0.1077
     15 H1         -8.0743   -3.5338    3.0759 H         1 <0>         0.0949
     16 C11        -9.0615   -2.6279    1.3891 C.3       1 <0>        -0.1131
     17 C12        -8.2069   -1.3905    1.4861 C.ar      1 <0>        -0.0195
     18 C13        -8.3261   -0.5529    2.5790 C.ar      1 <0>        -0.1594
     19 C14        -7.5417    0.5847    2.6690 C.ar      1 <0>         0.1472
     20 C15        -6.6376    0.8826    1.6642 C.ar      1 <0>        -0.1856
     21 C16        -6.5187    0.0428    0.5703 C.ar      1 <0>         0.1481
     22 C17        -7.3005   -1.0970    0.4849 C.ar      1 <0>        -0.1608
     23 F1         -5.6366    0.3323   -0.4112 F         1 <0>        -0.1240
     24 F2         -7.6591    1.4037    3.7370 F         1 <0>        -0.1274
     25 C18        -9.2549   -5.0254    2.0650 C.3       1 <0>         0.0897
     26 H2         -8.7095   -5.8843    2.4562 H         1 <0>         0.1388
     27 C19       -10.4685   -4.7443    2.9533 C.3       1 <0>        -0.0256
     28 H3        -11.0140   -3.8855    2.5622 H         1 <0>         0.1549
     29 C20       -11.3872   -5.9704    2.9662 C.3       1 <0>         0.1041
     30 N3        -12.4757   -5.7275    3.9256 N.pl3     1 <0>        -1.0139
     31 C21       -12.1187   -5.2754    5.2792 C.3       1 <0>         0.0886
     32 C22       -11.1654   -4.0820    5.1570 C.3       1 <0>        -0.0191
     33 N4        -10.0180   -4.4567    4.3210 N.4       1 <0>        -0.5025
     34 S1        -14.0580   -5.9559    3.4938 S.o2      1 <0>         2.6889
     35 O3        -14.8372   -5.1450    4.3625 O.2       1 <0>        -0.9368
     36 O4        -14.1152   -5.8306    2.0794 O.2       1 <0>        -0.9363
     37 C23       -14.4638   -7.6292    3.8679 C.ar      1 <0>        -0.6788
     38 C24       -14.2707   -8.6161    2.9192 C.ar      1 <0>        -0.0288
     39 C25       -14.5890   -9.9286    3.2127 C.ar      1 <0>        -0.1296
     40 C26       -15.1001  -10.2548    4.4552 C.ar      1 <0>        -0.0554
     41 C27       -15.2924   -9.2683    5.4040 C.ar      1 <0>        -0.0975
     42 C28       -14.9699   -7.9560    5.1119 C.ar      1 <0>        -0.0252
     43 C29       -15.8499   -9.6237    6.7582 C.3       1 <0>        -0.1234
     44 O5         -9.6935   -5.3056    0.7341 O.3       1 <0>        -0.5192
     45 H4          1.0039    1.9031    0.0027 H         1 <0>         0.0577
     46 H5         -0.5459    1.8868   -0.8726 H         1 <0>         0.0547
     47 H6         -0.5289    1.8773    0.9072 H         1 <0>         0.0529
     48 H7          0.5123   -0.3556   -0.8948 H         1 <0>         0.0657
     49 H8          0.5293   -0.3651    0.8851 H         1 <0>         0.0636
     50 H9         -1.9435   -0.1821    0.9097 H         1 <0>         0.0630
     51 H10        -1.9605   -0.1726   -0.8702 H         1 <0>         0.0673
     52 H11        -0.9024   -2.4150   -0.8923 H         1 <0>         0.0866
     53 H12        -0.8854   -2.4246    0.8875 H         1 <0>         0.0815
     54 H13        -2.9325   -3.3886    1.9537 H         1 <0>         0.0866
     55 H14        -3.9323   -1.9331    1.6674 H         1 <0>         0.0892
     56 H15        -4.4720   -4.8094    0.8710 H         1 <0>         0.1234
     57 H16        -5.1401   -4.2158   -1.3140 H         1 <0>         0.1141
     58 H17        -5.6249   -2.5645   -0.8158 H         1 <0>         0.1042
     59 H18        -7.1317   -4.8040    0.6212 H         1 <0>         0.4162
     60 H19        -9.2458   -2.8609    0.3403 H         1 <0>         0.1022
     61 H20       -10.0112   -2.4542    1.8950 H         1 <0>         0.0885
     62 H21        -9.0316   -0.7855    3.3629 H         1 <0>         0.1317
     63 H22        -6.0256    1.7698    1.7334 H         1 <0>         0.1501
     64 H23        -7.2048   -1.7547   -0.3664 H         1 <0>         0.1362
     65 H24       -11.8040   -6.1264    1.9712 H         1 <0>         0.1470
     66 H25       -10.8200   -6.8499    3.2709 H         1 <0>         0.1055
     67 H26       -13.0191   -4.9718    5.8133 H         1 <0>         0.1429
     68 H27       -11.6253   -6.0847    5.8174 H         1 <0>         0.1038
     69 H28       -11.6899   -3.2432    4.6994 H         1 <0>         0.1414
     70 H29       -10.8144   -3.7943    6.1481 H         1 <0>         0.1556
     71 H30        -9.5756   -5.2770    4.7075 H         1 <0>         0.4311
     72 H31       -13.8714   -8.3613    1.9486 H         1 <0>         0.1402
     73 H32       -14.4387  -10.6995    2.4713 H         1 <0>         0.1390
     74 H33       -15.3495  -11.2803    4.6843 H         1 <0>         0.1371
     75 H34       -15.1166   -7.1857    5.8545 H         1 <0>         0.1396
     76 H35       -15.0312   -9.8625    7.4369 H         1 <0>         0.0775
     77 H36       -16.4138   -8.7782    7.1522 H         1 <0>         0.0741
     78 H37       -16.5081  -10.4875    6.6648 H         1 <0>         0.0756
     79 H38       -10.1872   -4.5832    0.3224 H         1 <0>         0.3943
     80 H39        -9.3544   -3.6969    4.3024 H         1 <0>         0.4310
@<TRIPOS>BOND
     1    1    2 1
     2    1   45 1
     3    1   46 1
     4    1   47 1
     5    2    3 1
     6    2   48 1
     7    2   49 1
     8    3    4 1
     9    3   50 1
    10    3   51 1
    11    4    5 1
    12    4   52 1
    13    4   53 1
    14    5    9 am
    15    5    6 1
    16    6    7 1
    17    6   54 1
    18    6   55 1
    19    7    8 1
    20    7   11 1
    21    7   56 1
    22    8    9 1
    23    8   57 1
    24    8   58 1
    25    9   10 2
    26   11   12 2
    27   11   13 am
    28   13   14 1
    29   13   59 1
    30   14   15 1
    31   14   16 1
    32   14   25 1
    33   16   17 1
    34   16   60 1
    35   16   61 1
    36   17   22 ar
    37   17   18 ar
    38   18   19 ar
    39   18   62 1
    40   19   20 ar
    41   19   24 1
    42   20   21 ar
    43   20   63 1
    44   21   22 ar
    45   21   23 1
    46   22   64 1
    47   25   26 1
    48   25   27 1
    49   25   44 1
    50   27   28 1
    51   27   33 1
    52   27   29 1
    53   29   30 1
    54   29   65 1
    55   29   66 1
    56   30   31 1
    57   30   34 1
    58   31   32 1
    59   31   67 1
    60   31   68 1
    61   32   33 1
    62   32   69 1
    63   32   70 1
    64   33   71 1
    65   33   80 1
    66   34   35 2
    67   34   36 2
    68   34   37 1
    69   37   42 ar
    70   37   38 ar
    71   38   39 ar
    72   38   72 1
    73   39   40 ar
    74   39   73 1
    75   40   41 ar
    76   40   74 1
    77   41   42 ar
    78   41   43 1
    79   42   75 1
    80   43   76 1
    81   43   77 1
    82   43   78 1
    83   44   79 1
@<TRIPOS>MOLECULE
CHEMBL1097347__2
   79    82     0     0     0
SMALL
USER_CHARGES

@<TRIPOS>ATOM
      1 C1         -0.0187    1.5258    0.0104 C.3       1 <0>        -0.1525
      2 C2          0.0021   -0.0041    0.0020 C.3       1 <0>        -0.1224
      3 C3         -1.4333   -0.5336    0.0129 C.3       1 <0>        -0.1365
      4 C4         -1.4126   -2.0635    0.0045 C.3       1 <0>         0.1247
      5 N1         -2.7870   -2.5706    0.0149 N.am      1 <0>        -0.6175
      6 C5         -3.5543   -2.8583    1.2324 C.3       1 <0>         0.1177
      7 C6         -5.0296   -2.9364    0.7810 C.3       1 <0>        -0.1255
      8 C7         -4.8835   -3.3305   -0.7071 C.3       1 <0>        -0.1430
      9 C8         -3.5093   -2.8267   -1.0895 C.2       1 <0>         0.5184
     10 O1         -3.1156   -2.6780   -2.2269 O.2       1 <0>        -0.5261
     11 C9         -5.7732   -3.9982    1.5496 C.2       1 <0>         0.5269
     12 O2         -5.1969   -4.6521    2.3928 O.2       1 <0>        -0.5121
     13 N2         -7.0788   -4.2210    1.2998 N.am      1 <0>        -0.7218
     14 C10        -7.8017   -5.2532    2.0470 C.3       1 <0>         0.1272
     15 H1         -7.1330   -6.0894    2.2513 H         1 <0>         0.1212
     16 C11        -8.3051   -4.6682    3.3680 C.3       1 <0>        -0.1034
     17 C12        -7.1288   -4.2989    4.2346 C.ar      1 <0>        -0.0034
     18 C13        -6.5968   -5.2277    5.1090 C.ar      1 <0>        -0.1462
     19 C14        -5.5161   -4.8894    5.9060 C.ar      1 <0>         0.1388
     20 C15        -4.9685   -3.6206    5.8265 C.ar      1 <0>        -0.1941
     21 C16        -5.5018   -2.6914    4.9501 C.ar      1 <0>         0.1353
     22 C17        -6.5792   -3.0336    4.1503 C.ar      1 <0>        -0.1593
     23 F1         -4.9683   -1.4527    4.8714 F         1 <0>        -0.1345
     24 F2         -4.9969   -5.7971    6.7613 F         1 <0>        -0.1328
     25 C18        -8.9919   -5.7425    1.2194 C.3       1 <0>         0.1092
     26 H2         -8.6423   -6.0774    0.2429 H         1 <0>         0.1127
     27 C19        -9.6730   -6.9055    1.9437 C.3       1 <0>         0.0452
     28 H3        -10.0228   -6.5709    2.9203 H         1 <0>         0.0981
     29 C20       -10.8644   -7.3968    1.1146 C.3       1 <0>         0.0885
     30 N3        -11.4107   -8.6046    1.7518 N.pl3     1 <0>        -0.9985
     31 C21       -10.4832   -9.6974    2.0816 C.3       1 <0>         0.0752
     32 C22        -9.3068   -9.1155    2.8726 C.3       1 <0>         0.0492
     33 N4         -8.7137   -8.0044    2.1166 N.3       1 <0>        -0.6701
     34 S1        -13.0270   -8.7304    2.0895 S.o2      1 <0>         2.6901
     35 O3        -13.1490   -9.6735    3.1455 O.2       1 <0>        -0.9514
     36 O4        -13.5250   -7.4035    2.1919 O.2       1 <0>        -0.9506
     37 C23       -13.7993   -9.4509    0.6792 C.ar      1 <0>        -0.6740
     38 C24       -14.2780   -8.6425   -0.3352 C.ar      1 <0>        -0.0275
     39 C25       -14.8838   -9.2076   -1.4415 C.ar      1 <0>        -0.1339
     40 C26       -15.0107  -10.5813   -1.5340 C.ar      1 <0>        -0.0639
     41 C27       -14.5314  -11.3894   -0.5204 C.ar      1 <0>        -0.1039
     42 C28       -13.9215  -10.8243    0.5843 C.ar      1 <0>        -0.0233
     43 C29       -14.6701  -12.8866   -0.6210 C.3       1 <0>        -0.1190
     44 O5         -9.9258   -4.6742    1.0504 O.3       1 <0>        -0.5520
     45 H4          1.0039    1.9031    0.0027 H         1 <0>         0.0558
     46 H5         -0.5459    1.8868   -0.8726 H         1 <0>         0.0541
     47 H6         -0.5289    1.8773    0.9072 H         1 <0>         0.0538
     48 H7          0.5123   -0.3556   -0.8948 H         1 <0>         0.0643
     49 H8          0.5293   -0.3651    0.8851 H         1 <0>         0.0636
     50 H9         -1.9435   -0.1821    0.9097 H         1 <0>         0.0648
     51 H10        -1.9605   -0.1726   -0.8702 H         1 <0>         0.0665
     52 H11        -0.9024   -2.4150   -0.8923 H         1 <0>         0.0840
     53 H12        -0.8854   -2.4246    0.8875 H         1 <0>         0.0806
     54 H13        -3.2398   -3.8101    1.6603 H         1 <0>         0.0932
     55 H14        -3.4241   -2.0560    1.9587 H         1 <0>         0.0832
     56 H15        -5.5202   -1.9683    0.8817 H         1 <0>         0.1160
     57 H16        -4.9430   -4.4127   -0.8227 H         1 <0>         0.1087
     58 H17        -5.6480   -2.8390   -1.3088 H         1 <0>         0.1104
     59 H18        -7.5397   -3.6980    0.6254 H         1 <0>         0.4057
     60 H19        -8.9020   -3.7785    3.1674 H         1 <0>         0.0830
     61 H20        -8.9177   -5.4081    3.8831 H         1 <0>         0.0936
     62 H21        -7.0242   -6.2175    5.1709 H         1 <0>         0.1391
     63 H22        -4.1259   -3.3558    6.4480 H         1 <0>         0.1432
     64 H23        -6.9927   -2.3102    3.4632 H         1 <0>         0.1318
     65 H24       -11.6308   -6.6224    1.0802 H         1 <0>         0.1072
     66 H25       -10.5338   -7.6339    0.1034 H         1 <0>         0.0735
     67 H26       -10.9976  -10.4442    2.6866 H         1 <0>         0.1018
     68 H27       -10.1160  -10.1557    1.1634 H         1 <0>         0.0726
     69 H28        -9.6616   -8.7506    3.8365 H         1 <0>         0.0834
     70 H29        -8.5561   -9.8898    3.0304 H         1 <0>         0.0966
     71 H30        -8.3620   -8.3210    1.2255 H         1 <0>         0.3459
     72 H31       -14.1788   -7.5695   -0.2630 H         1 <0>         0.1392
     73 H32       -15.2584   -8.5762   -2.2336 H         1 <0>         0.1350
     74 H33       -15.4847  -11.0228   -2.3982 H         1 <0>         0.1323
     75 H34       -13.5436  -11.4560    1.3746 H         1 <0>         0.1384
     76 H35       -13.7926  -13.3002   -1.1180 H         1 <0>         0.0751
     77 H36       -14.7553  -13.3116    0.3791 H         1 <0>         0.0720
     78 H37       -15.5628  -13.1309   -1.1969 H         1 <0>         0.0715
     79 H38       -10.2793   -4.3257    1.8802 H         1 <0>         0.3806
@<TRIPOS>BOND
     1    1    2 1
     2    1   45 1
     3    1   46 1
     4    1   47 1
     5    2    3 1
     6    2   48 1
     7    2   49 1
     8    3    4 1
     9    3   50 1
    10    3   51 1
    11    4    5 1
    12    4   52 1
    13    4   53 1
    14    5    9 am
    15    5    6 1
    16    6    7 1
    17    6   54 1
    18    6   55 1
    19    7    8 1
    20    7   11 1
    21    7   56 1
    22    8    9 1
    23    8   57 1
    24    8   58 1
    25    9   10 2
    26   11   12 2
    27   11   13 am
    28   13   14 1
    29   13   59 1
    30   14   15 1
    31   14   16 1
    32   14   25 1
    33   16   17 1
    34   16   60 1
    35   16   61 1
    36   17   22 ar
    37   17   18 ar
    38   18   19 ar
    39   18   62 1
    40   19   20 ar
    41   19   24 1
    42   20   21 ar
    43   20   63 1
    44   21   22 ar
    45   21   23 1
    46   22   64 1
    47   25   26 1
    48   25   27 1
    49   25   44 1
    50   27   28 1
    51   27   33 1
    52   27   29 1
    53   29   30 1
    54   29   65 1
    55   29   66 1
    56   30   31 1
    57   30   34 1
    58   31   32 1
    59   31   67 1
    60   31   68 1
    61   32   33 1
    62   32   69 1
    63   32   70 1
    64   33   71 1
    65   34   35 2
    66   34   36 2
    67   34   37 1
    68   37   42 ar
    69   37   38 ar
    70   38   39 ar
    71   38   72 1
    72   39   40 ar
    73   39   73 1
    74   40   41 ar
    75   40   74 1
    76   41   42 ar
    77   41   43 1
    78   42   75 1
    79   43   76 1
    80   43   77 1
    81   43   78 1
    82   44   79 1
@<TRIPOS>MOLECULE
CHEMBL1097347__3
   80    83     0     0     0
SMALL
USER_CHARGES

@<TRIPOS>ATOM
      1 C1         -0.0187    1.5258    0.0104 C.3       1 <0>        -0.1534
      2 C2          0.0021   -0.0041    0.0020 C.3       1 <0>        -0.1229
      3 C3         -1.4333   -0.5336    0.0129 C.3       1 <0>        -0.1361
      4 C4         -1.4126   -2.0635    0.0045 C.3       1 <0>         0.1237
      5 N1         -2.7870   -2.5706    0.0149 N.am      1 <0>        -0.6169
      6 C5         -3.5543   -2.8583    1.2324 C.3       1 <0>         0.1176
      7 C6         -5.0296   -2.9364    0.7810 C.3       1 <0>        -0.1264
      8 C7         -4.8835   -3.3305   -0.7071 C.3       1 <0>        -0.1421
      9 C8         -3.5093   -2.8267   -1.0895 C.2       1 <0>         0.5158
     10 O1         -3.1156   -2.6780   -2.2269 O.2       1 <0>        -0.5177
     11 C9         -5.7732   -3.9982    1.5496 C.2       1 <0>         0.5334
     12 O2         -5.1969   -4.6521    2.3928 O.2       1 <0>        -0.5081
     13 N2         -7.0788   -4.2210    1.2998 N.am      1 <0>        -0.7205
     14 C10        -7.8017   -5.2532    2.0470 C.3       1 <0>         0.1077
     15 H1         -7.1330   -6.0894    2.2513 H         1 <0>         0.0944
     16 C11        -8.3051   -4.6682    3.3680 C.3       1 <0>        -0.1121
     17 C12        -7.1288   -4.2989    4.2346 C.ar      1 <0>        -0.0210
     18 C13        -6.5968   -5.2277    5.1090 C.ar      1 <0>        -0.1590
     19 C14        -5.5161   -4.8894    5.9060 C.ar      1 <0>         0.1459
     20 C15        -4.9685   -3.6206    5.8265 C.ar      1 <0>        -0.1852
     21 C16        -5.5018   -2.6914    4.9501 C.ar      1 <0>         0.1471
     22 C17        -6.5792   -3.0336    4.1503 C.ar      1 <0>        -0.1562
     23 F1         -4.9683   -1.4527    4.8714 F         1 <0>        -0.1260
     24 F2         -4.9969   -5.7971    6.7613 F         1 <0>        -0.1277
     25 C18        -8.9919   -5.7425    1.2194 C.3       1 <0>         0.0893
     26 H2         -8.6423   -6.0774    0.2429 H         1 <0>         0.1388
     27 C19        -9.6730   -6.9055    1.9437 C.3       1 <0>        -0.0255
     28 H3        -10.0227   -6.5706    2.9203 H         1 <0>         0.1550
     29 C20       -10.8648   -7.3958    1.1149 C.3       1 <0>         0.1040
     30 N3        -11.4226   -8.5928    1.7631 N.pl3     1 <0>        -1.0139
     31 C21       -10.4994   -9.6804    2.1225 C.3       1 <0>         0.0885
     32 C22        -9.3249   -9.0821    2.9038 C.3       1 <0>        -0.0190
     33 N4         -8.7136   -8.0034    2.1172 N.4       1 <0>        -0.5028
     34 S1        -13.0436   -8.7125    2.0796 S.o2      1 <0>         2.6891
     35 O3        -13.1815   -9.6389    3.1483 O.2       1 <0>        -0.9369
     36 O4        -13.5420   -7.3838    2.1541 O.2       1 <0>        -0.9366
     37 C23       -13.7964   -9.4544    0.6698 C.ar      1 <0>        -0.6789
     38 C24       -14.2599   -8.6617   -0.3638 C.ar      1 <0>        -0.0289
     39 C25       -14.8504   -9.2436   -1.4697 C.ar      1 <0>        -0.1295
     40 C26       -14.9771  -10.6185   -1.5426 C.ar      1 <0>        -0.0553
     41 C27       -14.5128  -11.4109   -0.5097 C.ar      1 <0>        -0.0975
     42 C28       -13.9183  -10.8291    0.5946 C.ar      1 <0>        -0.0251
     43 C29       -14.6514  -12.9095   -0.5889 C.3       1 <0>        -0.1235
     44 O5         -9.9258   -4.6742    1.0504 O.3       1 <0>        -0.5191
     45 H4          1.0039    1.9031    0.0027 H         1 <0>         0.0579
     46 H5         -0.5459    1.8868   -0.8726 H         1 <0>         0.0547
     47 H6         -0.5289    1.8773    0.9072 H         1 <0>         0.0538
     48 H7          0.5123   -0.3556   -0.8948 H         1 <0>         0.0655
     49 H8          0.5293   -0.3651    0.8851 H         1 <0>         0.0641
     50 H9         -1.9435   -0.1821    0.9097 H         1 <0>         0.0642
     51 H10        -1.9605   -0.1726   -0.8702 H         1 <0>         0.0671
     52 H11        -0.9024   -2.4150   -0.8923 H         1 <0>         0.0865
     53 H12        -0.8854   -2.4246    0.8875 H         1 <0>         0.0819
     54 H13        -3.2398   -3.8101    1.6603 H         1 <0>         0.0917
     55 H14        -3.4241   -2.0560    1.9587 H         1 <0>         0.0857
     56 H15        -5.5202   -1.9683    0.8817 H         1 <0>         0.1218
     57 H16        -4.9430   -4.4127   -0.8227 H         1 <0>         0.1058
     58 H17        -5.6480   -2.8390   -1.3088 H         1 <0>         0.1125
     59 H18        -7.5397   -3.6980    0.6254 H         1 <0>         0.4163
     60 H19        -8.9020   -3.7785    3.1674 H         1 <0>         0.1021
     61 H20        -8.9177   -5.4081    3.8831 H         1 <0>         0.0879
     62 H21        -7.0242   -6.2175    5.1709 H         1 <0>         0.1311
     63 H22        -4.1259   -3.3558    6.4480 H         1 <0>         0.1504
     64 H23        -6.9927   -2.3102    3.4632 H         1 <0>         0.1365
     65 H24       -11.6250   -6.6160    1.0695 H         1 <0>         0.1471
     66 H25       -10.5321   -7.6462    0.1075 H         1 <0>         0.1057
     67 H26       -11.0181  -10.4109    2.7433 H         1 <0>         0.1429
     68 H27       -10.1298  -10.1614    1.2169 H         1 <0>         0.1039
     69 H28        -9.6851   -8.6816    3.8514 H         1 <0>         0.1415
     70 H29        -8.5832   -9.8575    3.0953 H         1 <0>         0.1555
     71 H30        -8.4448   -8.3597    1.2123 H         1 <0>         0.4313
     72 H31       -14.1610   -7.5877   -0.3069 H         1 <0>         0.1402
     73 H32       -15.2131   -8.6244   -2.2767 H         1 <0>         0.1390
     74 H33       -15.4391  -11.0731   -2.4064 H         1 <0>         0.1371
     75 H34       -13.5522  -11.4485    1.3999 H         1 <0>         0.1396
     76 H35       -13.7672  -13.3313   -1.0669 H         1 <0>         0.0775
     77 H36       -14.7511  -13.3188    0.4164 H         1 <0>         0.0741
     78 H37       -15.5359  -13.1622   -1.1736 H         1 <0>         0.0756
     79 H38       -10.2793   -4.3257    1.8802 H         1 <0>         0.3941
     80 H39        -7.8952   -7.6606    2.5976 H         1 <0>         0.4310
@<TRIPOS>BOND
     1    1    2 1
     2    1   45 1
     3    1   46 1
     4    1   47 1
     5    2    3 1
     6    2   48 1
     7    2   49 1
     8    3    4 1
     9    3   50 1
    10    3   51 1
    11    4    5 1
    12    4   52 1
    13    4   53 1
    14    5    9 am
    15    5    6 1
    16    6    7 1
    17    6   54 1
    18    6   55 1
    19    7    8 1
    20    7   11 1
    21    7   56 1
    22    8    9 1
    23    8   57 1
    24    8   58 1
    25    9   10 2
    26   11   12 2
    27   11   13 am
    28   13   14 1
    29   13   59 1
    30   14   15 1
    31   14   16 1
    32   14   25 1
    33   16   17 1
    34   16   60 1
    35   16   61 1
    36   17   22 ar
    37   17   18 ar
    38   18   19 ar
    39   18   62 1
    40   19   20 ar
    41   19   24 1
    42   20   21 ar
    43   20   63 1
    44   21   22 ar
    45   21   23 1
    46   22   64 1
    47   25   26 1
    48   25   27 1
    49   25   44 1
    50   27   28 1
    51   27   33 1
    52   27   29 1
    53   29   30 1
    54   29   65 1
    55   29   66 1
    56   30   31 1
    57   30   34 1
    58   31   32 1
    59   31   67 1
    60   31   68 1
    61   32   33 1
    62   32   69 1
    63   32   70 1
    64   33   71 1
    65   33   80 1
    66   34   35 2
    67   34   36 2
    68   34   37 1
    69   37   42 ar
    70   37   38 ar
    71   38   39 ar
    72   38   72 1
    73   39   40 ar
    74   39   73 1
    75   40   41 ar
    76   40   74 1
    77   41   42 ar
    78   41   43 1
    79   42   75 1
    80   43   76 1
    81   43   77 1
    82   43   78 1
    83   44   79 1
@<TRIPOS>MOLECULE
CHEMBL1209357
   66    69     0     0     0
SMALL
USER_CHARGES

@<TRIPOS>ATOM
      1 C1         -1.3245    0.4479    2.4434 C.3       1 <0>        -0.1819
      2 C2         -1.6895   -1.0121    2.5224 C.2       1 <0>         0.5104
      3 O1         -2.2533   -1.4439    3.5055 O.2       1 <0>        -0.5325
      4 N1         -1.3894   -1.8380    1.5004 N.am      1 <0>        -0.7325
      5 C3         -1.8409   -3.2314    1.5279 C.3       1 <0>         0.1325
      6 H1         -1.5514   -3.7255    0.6004 H         1 <0>         0.1059
      7 C4         -1.1962   -3.9532    2.7130 C.3       1 <0>        -0.0984
      8 C5          0.2953   -4.0213    2.5086 C.ar      1 <0>        -0.0283
      9 C6          0.8525   -5.0958    1.8413 C.ar      1 <0>        -0.1643
     10 C7          2.2229   -5.1597    1.6534 C.ar      1 <0>         0.1396
     11 C8          3.0348   -4.1467    2.1336 C.ar      1 <0>        -0.1924
     12 C9          2.4757   -3.0709    2.8014 C.ar      1 <0>         0.1383
     13 C10         1.1045   -3.0065    2.9836 C.ar      1 <0>        -0.1578
     14 F1          3.2669   -2.0815    3.2706 F         1 <0>        -0.1261
     15 F2          2.7674   -6.2106    1.0019 F         1 <0>        -0.1256
     16 C11        -3.3634   -3.2714    1.6734 C.3       1 <0>         0.0678
     17 H2         -3.6476   -2.8480    2.6367 H         1 <0>         0.1460
     18 C12        -4.0048   -2.4562    0.5487 C.3       1 <0>        -0.0431
     19 N2         -5.4667   -2.4974    0.6864 N.4       1 <0>        -0.4697
     20 C13        -6.0854   -1.8022   -0.4502 C.3       1 <0>        -0.0045
     21 C14        -7.1661   -0.7644   -0.1402 C.3       1 <0>        -0.1379
     22 C15        -5.7841   -0.3112   -0.6153 C.3       1 <0>        -0.1422
     23 C16        -6.2470   -2.6224   -1.7041 C.ar      1 <0>        -0.0791
     24 C17        -6.7060   -2.0277   -2.8648 C.ar      1 <0>        -0.1006
     25 C18        -6.8541   -2.7800   -4.0147 C.ar      1 <0>        -0.0957
     26 C19        -6.5429   -4.1270   -4.0045 C.ar      1 <0>        -0.0946
     27 C20        -6.0832   -4.7213   -2.8445 C.ar      1 <0>        -0.0644
     28 C21        -5.9309   -3.9679   -1.6953 C.ar      1 <0>        -0.1151
     29 C22        -5.7444   -6.1897   -2.8332 C.3       1 <0>         0.1437
     30 C23        -6.9507   -7.0094   -3.3394 C.3       1 <0>        -0.1455
     31 C24        -6.9244   -8.2475   -2.4022 C.3       1 <0>        -0.1575
     32 C25        -6.4162   -7.6087   -1.0852 C.3       1 <0>         0.0499
     33 O2         -5.4644   -6.6135   -1.4939 O.3       1 <0>        -0.3746
     34 C26        -4.5279   -6.4483   -3.7244 C.3       1 <0>        -0.1506
     35 O3         -3.8138   -4.6254    1.5967 O.3       1 <0>        -0.5425
     36 H3         -0.3654    0.6097    2.9352 H         1 <0>         0.1032
     37 H4         -1.2521    0.7482    1.3981 H         1 <0>         0.0826
     38 H5         -2.0922    1.0416    2.9396 H         1 <0>         0.0995
     39 H6         -0.8744   -1.5098    0.7468 H         1 <0>         0.4124
     40 H7         -1.4125   -3.4080    3.6317 H         1 <0>         0.1076
     41 H8         -1.5994   -4.9632    2.7863 H         1 <0>         0.1010
     42 H9          0.2188   -5.8861    1.4667 H         1 <0>         0.1434
     43 H10         4.1038   -4.1959    1.9878 H         1 <0>         0.1522
     44 H11         0.6675   -2.1650    3.5007 H         1 <0>         0.1362
     45 H12        -3.6632   -1.4228    0.6087 H         1 <0>         0.1384
     46 H13        -3.7185   -2.8781   -0.4147 H         1 <0>         0.1367
     47 H14        -5.7761   -3.4577    0.7020 H         1 <0>         0.4340
     48 H15        -7.9943   -0.6749   -0.8432 H         1 <0>         0.1363
     49 H16        -7.4180   -0.5976    0.9071 H         1 <0>         0.1266
     50 H17        -5.1268    0.1537    0.1195 H         1 <0>         0.1225
     51 H18        -5.7031    0.0765   -1.6308 H         1 <0>         0.1357
     52 H19        -6.9491   -0.9755   -2.8727 H         1 <0>         0.1327
     53 H20        -7.2134   -2.3156   -4.9212 H         1 <0>         0.1390
     54 H21        -6.6593   -4.7150   -4.9029 H         1 <0>         0.1348
     55 H22        -5.5681   -4.4314   -0.7898 H         1 <0>         0.1230
     56 H23        -7.8783   -6.4502   -3.2175 H         1 <0>         0.0804
     57 H24        -6.8092   -7.3064   -4.3786 H         1 <0>         0.0909
     58 H25        -7.9230   -8.6660   -2.2761 H         1 <0>         0.0890
     59 H26        -6.2276   -9.0019   -2.7674 H         1 <0>         0.0842
     60 H27        -7.2422   -7.1439   -0.5469 H         1 <0>         0.0613
     61 H28        -5.9330   -8.3610   -0.4618 H         1 <0>         0.0928
     62 H29        -3.6600   -5.9328   -3.3132 H         1 <0>         0.0640
     63 H30        -4.3287   -7.5192   -3.7654 H         1 <0>         0.0715
     64 H31        -4.7284   -6.0773   -4.7295 H         1 <0>         0.0717
     65 H32        -3.5951   -5.0662    0.7643 H         1 <0>         0.3902
     66 H33        -5.7366   -2.0431    1.5459 H         1 <0>         0.4297
@<TRIPOS>BOND
     1    1    2 1
     2    1   36 1
     3    1   37 1
     4    1   38 1
     5    2    3 2
     6    2    4 am
     7    4    5 1
     8    4   39 1
     9    5    6 1
    10    5    7 1
    11    5   16 1
    12    7    8 1
    13    7   40 1
    14    7   41 1
    15    8   13 ar
    16    8    9 ar
    17    9   10 ar
    18    9   42 1
    19   10   11 ar
    20   10   15 1
    21   11   12 ar
    22   11   43 1
    23   12   13 ar
    24   12   14 1
    25   13   44 1
    26   16   17 1
    27   16   18 1
    28   16   35 1
    29   18   19 1
    30   18   45 1
    31   18   46 1
    32   19   20 1
    33   19   47 1
    34   19   66 1
    35   20   22 1
    36   20   21 1
    37   20   23 1
    38   21   22 1
    39   21   48 1
    40   21   49 1
    41   22   50 1
    42   22   51 1
    43   23   28 ar
    44   23   24 ar
    45   24   25 ar
    46   24   52 1
    47   25   26 ar
    48   25   53 1
    49   26   27 ar
    50   26   54 1
    51   27   28 ar
    52   27   29 1
    53   28   55 1
    54   29   33 1
    55   29   30 1
    56   29   34 1
    57   30   31 1
    58   30   56 1
    59   30   57 1
    60   31   32 1
    61   31   58 1
    62   31   59 1
    63   32   33 1
    64   32   60 1
    65   32   61 1
    66   34   62 1
    67   34   63 1
    68   34   64 1
    69   35   65 1
@<TRIPOS>MOLECULE
CHEMBL1209357__1
   66    69     0     0     0
SMALL
USER_CHARGES

@<TRIPOS>ATOM
      1 C1          0.5863    0.8017   -3.9741 C.3       1 <0>        -0.1819
      2 C2          0.5083   -0.5721   -3.3595 C.2       1 <0>         0.5105
      3 O1          0.8967   -0.7517   -2.2247 O.2       1 <0>        -0.5324
      4 N1          0.0069   -1.6011   -4.0710 N.am      1 <0>        -0.7325
      5 C3         -0.1681   -2.9116   -3.4399 C.3       1 <0>         0.1329
      6 H1         -0.6351   -3.5963   -4.1478 H         1 <0>         0.1052
      7 C4          1.1967   -3.4626   -3.0220 C.3       1 <0>        -0.0984
      8 C5          2.0320   -3.7197   -4.2497 C.ar      1 <0>        -0.0282
      9 C6          1.9787   -4.9507   -4.8758 C.ar      1 <0>        -0.1645
     10 C7          2.7461   -5.1881   -6.0037 C.ar      1 <0>         0.1395
     11 C8          3.5665   -4.1920   -6.5043 C.ar      1 <0>        -0.1923
     12 C9          3.6187   -2.9594   -5.8767 C.ar      1 <0>         0.1386
     13 C10         2.8465   -2.7224   -4.7519 C.ar      1 <0>        -0.1576
     14 F1          4.4190   -1.9862   -6.3642 F         1 <0>        -0.1259
     15 F2          2.6945   -6.3918   -6.6150 F         1 <0>        -0.1258
     16 C11        -1.0600   -2.7680   -2.2050 C.3       1 <0>         0.0672
     17 H2         -0.5570   -2.1469   -1.4638 H         1 <0>         0.1466
     18 C12        -2.3837   -2.1134   -2.6053 C.3       1 <0>        -0.0430
     19 N2         -3.2371   -1.9690   -1.4185 N.4       1 <0>        -0.4696
     20 C13        -4.5468   -1.4376   -1.8188 C.3       1 <0>        -0.0044
     21 C14        -5.1203   -0.2803   -0.9988 C.3       1 <0>        -0.1375
     22 C15        -4.5862   -0.0269   -2.4099 C.3       1 <0>        -0.1425
     23 C16        -5.5184   -2.4498   -2.3688 C.ar      1 <0>        -0.0789
     24 C17        -6.7279   -2.0332   -2.8932 C.ar      1 <0>        -0.1003
     25 C18        -7.6190   -2.9615   -3.3976 C.ar      1 <0>        -0.0953
     26 C19        -7.3006   -4.3068   -3.3782 C.ar      1 <0>        -0.0952
     27 C20        -6.0912   -4.7233   -2.8548 C.ar      1 <0>        -0.0523
     28 C21        -5.1980   -3.7942   -2.3541 C.ar      1 <0>        -0.1134
     29 C22        -5.7444   -6.1897   -2.8332 C.3       1 <0>         0.1415
     30 C23        -5.8273   -6.7688   -4.2588 C.3       1 <0>        -0.1470
     31 C24        -4.4079   -7.3265   -4.5250 C.3       1 <0>        -0.1555
     32 C25        -3.8531   -7.5014   -3.0884 C.3       1 <0>         0.0457
     33 O2         -4.3921   -6.3655   -2.3786 O.3       1 <0>        -0.3723
     34 C26        -6.7058   -6.9379   -1.9076 C.3       1 <0>        -0.1632
     35 O3         -1.3160   -4.0595   -1.6496 O.3       1 <0>        -0.5414
     36 H3          1.5776    0.9528   -4.4014 H         1 <0>         0.1032
     37 H4         -0.1650    0.8920   -4.7586 H         1 <0>         0.0826
     38 H5          0.4028    1.5539   -3.2069 H         1 <0>         0.0996
     39 H6         -0.2382   -1.4740   -5.0009 H         1 <0>         0.4123
     40 H7          1.7017   -2.7371   -2.3843 H         1 <0>         0.1075
     41 H8          1.0598   -4.3948   -2.4739 H         1 <0>         0.1009
     42 H9          1.3385   -5.7278   -4.4850 H         1 <0>         0.1429
     43 H10         4.1656   -4.3764   -7.3837 H         1 <0>         0.1522
     44 H11         2.8837   -1.7594   -4.2646 H         1 <0>         0.1364
     45 H12        -2.1880   -1.1305   -3.0339 H         1 <0>         0.1383
     46 H13        -2.8891   -2.7372   -3.3426 H         1 <0>         0.1364
     47 H14        -3.3593   -2.8697   -0.9804 H         1 <0>         0.4347
     48 H15        -6.2007   -0.2509   -0.8568 H         1 <0>         0.1365
     49 H16        -4.5259    0.0869   -0.1622 H         1 <0>         0.1267
     50 H17        -3.6403    0.5068   -2.5017 H         1 <0>         0.1225
     51 H18        -5.3151    0.1691   -3.1963 H         1 <0>         0.1356
     52 H19        -6.9766   -0.9823   -2.9083 H         1 <0>         0.1330
     53 H20        -8.5641   -2.6361   -3.8065 H         1 <0>         0.1395
     54 H21        -7.9972   -5.0323   -3.7716 H         1 <0>         0.1353
     55 H22        -4.2513   -4.1193   -1.9486 H         1 <0>         0.1238
     56 H23        -6.5661   -7.5689   -4.3032 H         1 <0>         0.0864
     57 H24        -6.0696   -5.9843   -4.9758 H         1 <0>         0.0811
     58 H25        -4.4572   -8.2847   -5.0423 H         1 <0>         0.0870
     59 H26        -3.8086   -6.6119   -5.0891 H         1 <0>         0.0761
     60 H27        -4.2104   -8.4330   -2.6496 H         1 <0>         0.0681
     61 H28        -2.7635   -7.4704   -3.0913 H         1 <0>         0.0982
     62 H29        -7.7257   -6.8253   -2.2755 H         1 <0>         0.0717
     63 H30        -6.4416   -7.9951   -1.8872 H         1 <0>         0.0700
     64 H31        -6.6352   -6.5261   -0.9008 H         1 <0>         0.0665
     65 H32        -1.7628   -4.6666   -2.2553 H         1 <0>         0.3888
     66 H33        -2.8017   -1.3341   -0.7663 H         1 <0>         0.4299
@<TRIPOS>BOND
     1    1    2 1
     2    1   36 1
     3    1   37 1
     4    1   38 1
     5    2    3 2
     6    2    4 am
     7    4    5 1
     8    4   39 1
     9    5    6 1
    10    5    7 1
    11    5   16 1
    12    7    8 1
    13    7   40 1
    14    7   41 1
    15    8   13 ar
    16    8    9 ar
    17    9   10 ar
    18    9   42 1
    19   10   11 ar
    20   10   15 1
    21   11   12 ar
    22   11   43 1
    23   12   13 ar
    24   12   14 1
    25   13   44 1
    26   16   17 1
    27   16   18 1
    28   16   35 1
    29   18   19 1
    30   18   45 1
    31   18   46 1
    32   19   20 1
    33   19   47 1
    34   19   66 1
    35   20   22 1
    36   20   21 1
    37   20   23 1
    38   21   22 1
    39   21   48 1
    40   21   49 1
    41   22   50 1
    42   22   51 1
    43   23   28 ar
    44   23   24 ar
    45   24   25 ar
    46   24   52 1
    47   25   26 ar
    48   25   53 1
    49   26   27 ar
    50   26   54 1
    51   27   28 ar
    52   27   29 1
    53   28   55 1
    54   29   33 1
    55   29   30 1
    56   29   34 1
    57   30   31 1
    58   30   56 1
    59   30   57 1
    60   31   32 1
    61   31   58 1
    62   31   59 1
    63   32   33 1
    64   32   60 1
    65   32   61 1
    66   34   62 1
    67   34   63 1
    68   34   64 1
    69   35   65 1
@<TRIPOS>MOLECULE
CHEMBL1087742
   59    61     0     0     0
SMALL
USER_CHARGES

@<TRIPOS>ATOM
      1 C1         -0.6787    0.5508    0.0001 C.3       1 <0>        -0.1190
      2 C2         -0.5928   -0.9420    0.1875 C.ar      1 <0>        -0.1032
      3 C3         -0.6662   -1.7817   -0.9084 C.ar      1 <0>        -0.0635
      4 C4         -0.5875   -3.1508   -0.7365 C.ar      1 <0>        -0.1331
      5 C5         -0.4348   -3.6807    0.5314 C.ar      1 <0>        -0.0271
      6 C6         -0.3605   -2.8412    1.6268 C.ar      1 <0>        -0.6733
      7 C7         -0.4350   -1.4715    1.4544 C.ar      1 <0>        -0.0235
      8 S1         -0.1665   -3.5166    3.2427 S.o2      1 <0>         2.6886
      9 O1         -0.6711   -2.5474    4.1512 O.2       1 <0>        -0.9545
     10 O2         -0.6674   -4.8453    3.1904 O.2       1 <0>        -0.9516
     11 N1          1.4598   -3.6348    3.5319 N.pl3     1 <0>        -0.9959
     12 C8          2.2042   -4.8510    3.1713 C.3       1 <0>         0.1195
     13 C9          3.0034   -5.3132    4.3943 C.3       1 <0>         0.0470
     14 N2          3.8295   -4.2016    4.8841 N.3       1 <0>        -0.6715
     15 C10         2.9975   -3.0802    5.3406 C.3       1 <0>         0.0495
     16 H1          2.3107   -3.4275    6.1125 H         1 <0>         0.0562
     17 C11         2.1992   -2.5242    4.1507 C.3       1 <0>         0.1199
     18 C12         3.8933   -1.9794    5.9119 C.3       1 <0>         0.1018
     19 H2          4.5053   -2.3893    6.7154 H         1 <0>         0.1273
     20 C13         3.0229   -0.8471    6.4607 C.3       1 <0>         0.1220
     21 H3          2.4789   -0.3772    5.6413 H         1 <0>         0.0949
     22 C14         3.9115    0.1932    7.1457 C.3       1 <0>        -0.1004
     23 C15         3.0700    1.3663    7.5778 C.ar      1 <0>        -0.0185
     24 C16         2.8748    2.4302    6.7174 C.ar      1 <0>        -0.1641
     25 C17         2.1021    3.5089    7.1135 C.ar      1 <0>         0.1354
     26 C18         1.5248    3.5212    8.3715 C.ar      1 <0>        -0.1976
     27 C19         1.7206    2.4549    9.2322 C.ar      1 <0>         0.1349
     28 C20         2.4894    1.3749    8.8319 C.ar      1 <0>        -0.1564
     29 F1          1.1577    2.4655   10.4603 F         1 <0>        -0.1297
     30 F2          1.9122    4.5491    6.2727 F         1 <0>        -0.1296
     31 N3          2.0698   -1.3905    7.4315 N.am      1 <0>        -0.7246
     32 C21         2.5178   -2.0210    8.5353 C.2       1 <0>         0.5127
     33 O3          3.7099   -2.1386    8.7248 O.2       1 <0>        -0.5374
     34 C22         1.5373   -2.5800    9.5340 C.3       1 <0>        -0.1779
     35 O4          4.7408   -1.4712    4.8796 O.3       1 <0>        -0.5357
     36 H4          0.3215    0.9559   -0.1535 H         1 <0>         0.0757
     37 H5         -1.2980    0.7728   -0.8691 H         1 <0>         0.0714
     38 H6         -1.1218    1.0035    0.8871 H         1 <0>         0.0715
     39 H7         -0.7855   -1.3678   -1.8988 H         1 <0>         0.1324
     40 H8         -0.6455   -3.8068   -1.5925 H         1 <0>         0.1351
     41 H9         -0.3739   -4.7506    0.6658 H         1 <0>         0.1390
     42 H10        -0.3732   -0.8154    2.3100 H         1 <0>         0.1376
     43 H11         1.5057   -5.6330    2.8734 H         1 <0>         0.0977
     44 H12         2.8861   -4.6327    2.3494 H         1 <0>         0.0807
     45 H13         2.3165   -5.6293    5.1794 H         1 <0>         0.0373
     46 H14         3.6459   -6.1481    4.1147 H         1 <0>         0.0927
     47 H15         4.4537   -4.5095    5.6146 H         1 <0>         0.3510
     48 H16         2.8807   -2.0865    3.4212 H         1 <0>         0.0798
     49 H17         1.4975   -1.7671    4.5006 H         1 <0>         0.0939
     50 H18         4.3874   -0.2537    8.0186 H         1 <0>         0.1061
     51 H19         4.6773    0.5326    6.4483 H         1 <0>         0.0991
     52 H20         3.3253    2.4204    5.7359 H         1 <0>         0.1437
     53 H21         0.9223    4.3622    8.6814 H         1 <0>         0.1482
     54 H22         2.6387    0.5409    9.5016 H         1 <0>         0.1370
     55 H23         1.1163   -1.2964    7.2800 H         1 <0>         0.4084
     56 H24         0.5205   -2.3796    9.1962 H         1 <0>         0.0780
     57 H25         1.6847   -3.6562    9.6246 H         1 <0>         0.0962
     58 H26         1.6976   -2.1084   10.5035 H         1 <0>         0.0975
     59 H27         4.2628   -1.0900    4.1304 H         1 <0>         0.3685
@<TRIPOS>BOND
     1    1    2 1
     2    1   36 1
     3    1   37 1
     4    1   38 1
     5    2    7 ar
     6    2    3 ar
     7    3    4 ar
     8    3   39 1
     9    4    5 ar
    10    4   40 1
    11    5    6 ar
    12    5   41 1
    13    6    7 ar
    14    6    8 1
    15    7   42 1
    16    8    9 2
    17    8   10 2
    18    8   11 1
    19   11   17 1
    20   11   12 1
    21   12   13 1
    22   12   43 1
    23   12   44 1
    24   13   14 1
    25   13   45 1
    26   13   46 1
    27   14   15 1
    28   14   47 1
    29   15   16 1
    30   15   17 1
    31   15   18 1
    32   17   48 1
    33   17   49 1
    34   18   19 1
    35   18   20 1
    36   18   35 1
    37   20   21 1
    38   20   22 1
    39   20   31 1
    40   22   23 1
    41   22   50 1
    42   22   51 1
    43   23   28 ar
    44   23   24 ar
    45   24   25 ar
    46   24   52 1
    47   25   26 ar
    48   25   30 1
    49   26   27 ar
    50   26   53 1
    51   27   28 ar
    52   27   29 1
    53   28   54 1
    54   31   32 am
    55   31   55 1
    56   32   33 2
    57   32   34 1
    58   34   56 1
    59   34   57 1
    60   34   58 1
    61   35   59 1
@<TRIPOS>MOLECULE
CHEMBL1087742__1
   60    62     0     0     0
SMALL
USER_CHARGES

@<TRIPOS>ATOM
      1 C1         -0.6514    0.5241   -0.0319 C.3       1 <0>        -0.1236
      2 C2         -0.5657   -0.9679    0.1622 C.ar      1 <0>        -0.0967
      3 C3         -0.6335   -1.8122   -0.9305 C.ar      1 <0>        -0.0548
      4 C4         -0.5549   -3.1805   -0.7525 C.ar      1 <0>        -0.1287
      5 C5         -0.4080   -3.7050    0.5183 C.ar      1 <0>        -0.0287
      6 C6         -0.3393   -2.8610    1.6106 C.ar      1 <0>        -0.6795
      7 C7         -0.4137   -1.4920    1.4321 C.ar      1 <0>        -0.0261
      8 S1         -0.1527   -3.5294    3.2301 S.o2      1 <0>         2.6889
      9 O1         -0.6621   -2.5567    4.1321 O.2       1 <0>        -0.9386
     10 O2         -0.6527   -4.8586    3.1810 O.2       1 <0>        -0.9353
     11 N1          1.4722   -3.6457    3.5276 N.pl3     1 <0>        -1.0106
     12 C8          2.2203   -4.8626    3.1760 C.3       1 <0>         0.0889
     13 C9          3.0290   -5.3061    4.3996 C.3       1 <0>        -0.0183
     14 N2          3.8665   -4.1921    4.8617 N.4       1 <0>        -0.4965
     15 C10         3.0177   -3.0883    5.3280 C.3       1 <0>        -0.0213
     16 H1          2.3370   -3.4532    6.0972 H         1 <0>         0.1540
     17 C11         2.2096   -2.5327    4.1453 C.3       1 <0>         0.0908
     18 C12         3.8968   -1.9791    5.9092 C.3       1 <0>         0.0750
     19 H2          4.5181   -2.3879    6.7062 H         1 <0>         0.1541
     20 C13         3.0094   -0.8679    6.4735 C.3       1 <0>         0.1263
     21 H3          2.4557   -0.3972    5.6611 H         1 <0>         0.1072
     22 C14         3.8825    0.1785    7.1689 C.3       1 <0>        -0.0979
     23 C15         3.0230    1.3324    7.6170 C.ar      1 <0>        -0.0302
     24 C16         2.8084    2.4032    6.7699 C.ar      1 <0>        -0.1646
     25 C17         2.0192    3.4643    7.1806 C.ar      1 <0>         0.1397
     26 C18         1.4448    3.4521    8.4400 C.ar      1 <0>        -0.1914
     27 C19         1.6601    2.3790    9.2873 C.ar      1 <0>         0.1395
     28 C20         2.4454    1.3166    8.8725 C.ar      1 <0>        -0.1571
     29 F1          1.1001    2.3657   10.5167 F         1 <0>        -0.1255
     30 F2          1.8103    4.5113    6.3527 F         1 <0>        -0.1257
     31 N3          2.0676   -1.4384    7.4399 N.am      1 <0>        -0.7339
     32 C21         2.5285   -2.0747    8.5350 C.2       1 <0>         0.5128
     33 O3          3.7229   -2.1750    8.7204 O.2       1 <0>        -0.5338
     34 C22         1.5598   -2.6615    9.5291 C.3       1 <0>        -0.1834
     35 O4          4.7324   -1.4452    4.8803 O.3       1 <0>        -0.5384
     36 H4          0.3494    0.9290   -0.1823 H         1 <0>         0.0779
     37 H5         -1.2666    0.7422   -0.9049 H         1 <0>         0.0759
     38 H6         -1.0990    0.9803    0.8511 H         1 <0>         0.0738
     39 H7         -0.7482   -1.4025   -1.9232 H         1 <0>         0.1376
     40 H8         -0.6086   -3.8401   -1.6060 H         1 <0>         0.1394
     41 H9         -0.3473   -4.7743    0.6574 H         1 <0>         0.1401
     42 H10        -0.3562   -0.8322    2.2852 H         1 <0>         0.1386
     43 H11         1.5239   -5.6514    2.8916 H         1 <0>         0.1424
     44 H12         2.8962   -4.6504    2.3476 H         1 <0>         0.1037
     45 H13         2.3479   -5.6039    5.1969 H         1 <0>         0.1382
     46 H14         3.6636   -6.1501    4.1294 H         1 <0>         0.1536
     47 H15         4.4539   -4.5063    5.6195 H         1 <0>         0.4363
     48 H16         2.8844   -2.0893    3.4131 H         1 <0>         0.1031
     49 H17         1.5061   -1.7804    4.5020 H         1 <0>         0.1387
     50 H18         4.3678   -0.2710    8.0353 H         1 <0>         0.1095
     51 H19         4.6410    0.5387    6.4739 H         1 <0>         0.1022
     52 H20         3.2566    2.4125    5.7873 H         1 <0>         0.1432
     53 H21         0.8294    4.2794    8.7613 H         1 <0>         0.1524
     54 H22         2.6100    0.4771    9.5318 H         1 <0>         0.1368
     55 H23         1.1124   -1.3582    7.2917 H         1 <0>         0.4156
     56 H24         1.3321   -3.6904    9.2507 H         1 <0>         0.0974
     57 H25         2.0050   -2.6443   10.5239 H         1 <0>         0.1029
     58 H26         0.6416   -2.0742    9.5318 H         1 <0>         0.0881
     59 H27         4.2458   -1.0635    4.1369 H         1 <0>         0.3847
     60 H28         4.4462   -3.8707    4.1010 H         1 <0>         0.4315
@<TRIPOS>BOND
     1    1    2 1
     2    1   36 1
     3    1   37 1
     4    1   38 1
     5    2    7 ar
     6    2    3 ar
     7    3    4 ar
     8    3   39 1
     9    4    5 ar
    10    4   40 1
    11    5    6 ar
    12    5   41 1
    13    6    7 ar
    14    6    8 1
    15    7   42 1
    16    8    9 2
    17    8   10 2
    18    8   11 1
    19   11   17 1
    20   11   12 1
    21   12   13 1
    22   12   43 1
    23   12   44 1
    24   13   14 1
    25   13   45 1
    26   13   46 1
    27   14   15 1
    28   14   47 1
    29   14   60 1
    30   15   16 1
    31   15   17 1
    32   15   18 1
    33   17   48 1
    34   17   49 1
    35   18   19 1
    36   18   20 1
    37   18   35 1
    38   20   21 1
    39   20   22 1
    40   20   31 1
    41   22   23 1
    42   22   50 1
    43   22   51 1
    44   23   28 ar
    45   23   24 ar
    46   24   25 ar
    47   24   52 1
    48   25   26 ar
    49   25   30 1
    50   26   27 ar
    51   26   53 1
    52   27   28 ar
    53   27   29 1
    54   28   54 1
    55   31   32 am
    56   31   55 1
    57   32   33 2
    58   32   34 1
    59   34   56 1
    60   34   57 1
    61   34   58 1
    62   35   59 1
@<TRIPOS>MOLECULE
CHEMBL260834
   80    83     0     0     0
SMALL
USER_CHARGES

@<TRIPOS>ATOM
      1 C1         -0.0187    1.5258    0.0104 C.3       1 <0>        -0.1404
      2 C2          0.0021   -0.0041    0.0020 C.3       1 <0>        -0.0347
      3 C3          0.7421   -0.5109    1.2415 C.3       1 <0>        -0.1421
      4 C4         -1.4333   -0.5336    0.0129 C.3       1 <0>        -0.1521
      5 C5          0.7074   -0.4901   -1.2379 C.ar      1 <0>        -0.0584
      6 C6          0.0360   -1.2844   -2.1487 C.ar      1 <0>        -0.0849
      7 C7          0.6829   -1.7302   -3.2858 C.ar      1 <0>        -0.1101
      8 C8          2.0014   -1.3813   -3.5127 C.ar      1 <0>        -0.0985
      9 C9          2.6723   -0.5864   -2.6026 C.ar      1 <0>        -0.1658
     10 C10         2.0239   -0.1370   -1.4673 C.ar      1 <0>        -0.0901
     11 C11         4.1096   -0.2065   -2.8497 C.3       1 <0>         0.0468
     12 N1          4.1603    1.0485   -3.6115 N.4       1 <0>        -0.5036
     13 C12         5.5613    1.4188   -3.8523 C.3       1 <0>        -0.0484
     14 C13         5.6142    2.7260   -4.6457 C.3       1 <0>         0.0760
     15 H1          5.0293    2.6203   -5.5594 H         1 <0>         0.1339
     16 C14         7.0666    3.0466   -5.0041 C.3       1 <0>         0.1273
     17 H2          7.5062    2.2000   -5.5316 H         1 <0>         0.1091
     18 C15         7.8599    3.3177   -3.7242 C.3       1 <0>        -0.1021
     19 C16         9.3145    3.5124   -4.0664 C.ar      1 <0>        -0.0797
     20 C17        10.1688    2.4261   -4.0969 C.ar      1 <0>        -0.1058
     21 C18        11.5031    2.6047   -4.4109 C.ar      1 <0>        -0.1093
     22 C19        11.9831    3.8696   -4.6948 C.ar      1 <0>        -0.1076
     23 C20        11.1286    4.9558   -4.6652 C.ar      1 <0>        -0.1131
     24 C21         9.7933    4.7766   -4.3555 C.ar      1 <0>        -0.1106
     25 N2          7.1072    4.2321   -5.8640 N.am      1 <0>        -0.7242
     26 C22         8.1458    4.4218   -6.7017 C.2       1 <0>         0.5043
     27 O1          9.0469    3.6111   -6.7437 O.2       1 <0>        -0.4843
     28 C23         8.1874    5.6412   -7.5862 C.3       1 <0>         0.1070
     29 H3          7.8447    6.5203   -7.0404 H         1 <0>         0.1143
     30 C24         7.3333    5.4221   -8.8500 C.3       1 <0>         0.1067
     31 N3          8.3003    5.5331   -9.9523 N.am      1 <0>        -0.6275
     32 C25         9.5172    5.7751   -9.4475 C.2       1 <0>         0.7059
     33 O2         10.5070    5.9124  -10.1402 O.2       1 <0>        -0.5641
     34 N4          9.5458    5.8545   -8.1076 N.am      1 <0>        -0.7138
     35 C26         7.9832    5.4001  -11.3764 C.3       1 <0>         0.1927
     36 C27         7.6279    6.7517  -11.9403 C.ar      1 <0>        -0.0608
     37 C28         6.3157    7.1852  -11.9198 C.ar      1 <0>        -0.1517
     38 C29         5.9880    8.4268  -12.4380 C.ar      1 <0>         0.1291
     39 C30         6.9753    9.2340  -12.9764 C.ar      1 <0>        -0.1853
     40 C31         8.2892    8.7989  -12.9960 C.ar      1 <0>         0.1344
     41 C32         8.6153    7.5591  -12.4724 C.ar      1 <0>        -0.1376
     42 F1          9.2538    9.5857  -13.5211 F         1 <0>        -0.1254
     43 F2          4.7052    8.8500  -12.4187 F         1 <0>        -0.1288
     44 O3          5.0738    3.7858   -3.8541 O.3       1 <0>        -0.5487
     45 H4          1.0039    1.9031    0.0027 H         1 <0>         0.0538
     46 H5         -0.5459    1.8868   -0.8726 H         1 <0>         0.0585
     47 H6         -0.5289    1.8773    0.9072 H         1 <0>         0.0674
     48 H7          0.2319   -0.1594    2.1383 H         1 <0>         0.0671
     49 H8          0.7568   -1.6008    1.2356 H         1 <0>         0.0596
     50 H9          1.7647   -0.1336    1.2338 H         1 <0>         0.0551
     51 H10        -1.9605   -0.1726   -0.8702 H         1 <0>         0.0614
     52 H11        -1.4185   -1.6235    0.0069 H         1 <0>         0.0619
     53 H12        -1.9435   -0.1821    0.9097 H         1 <0>         0.0673
     54 H13        -0.9939   -1.5570   -1.9714 H         1 <0>         0.1396
     55 H14         0.1586   -2.3513   -3.9970 H         1 <0>         0.1359
     56 H15         2.5071   -1.7302   -4.4009 H         1 <0>         0.1302
     57 H16         2.5470    0.4872   -0.7580 H         1 <0>         0.1297
     58 H17         4.6194   -0.0733   -1.8956 H         1 <0>         0.1375
     59 H18         4.6017   -0.9963   -3.4174 H         1 <0>         0.1390
     60 H19         3.6884    0.9252   -4.4948 H         1 <0>         0.4285
     61 H20         6.0711    1.5521   -2.8982 H         1 <0>         0.1416
     62 H21         6.0534    0.6291   -4.4200 H         1 <0>         0.1477
     63 H22         7.4763    4.2172   -3.2426 H         1 <0>         0.0829
     64 H23         7.7564    2.4704   -3.0463 H         1 <0>         0.0797
     65 H24         9.7939    1.4378   -3.8751 H         1 <0>         0.1121
     66 H25        12.1708    1.7561   -4.4340 H         1 <0>         0.1203
     67 H26        13.0257    4.0092   -4.9394 H         1 <0>         0.1216
     68 H27        11.5036    5.9441   -4.8867 H         1 <0>         0.1193
     69 H28         9.1249    5.6247   -4.3360 H         1 <0>         0.1106
     70 H29         6.3865    4.8804   -5.8304 H         1 <0>         0.4083
     71 H30         6.8791    4.4313   -8.8378 H         1 <0>         0.0845
     72 H31         6.5681    6.1939   -8.9332 H         1 <0>         0.0953
     73 H32        10.3344    6.0242   -7.5689 H         1 <0>         0.4351
     74 H33         8.8487    5.0016  -11.9057 H         1 <0>         0.1056
     75 H34         7.1386    4.7219  -11.4987 H         1 <0>         0.0993
     76 H35         5.5456    6.5553  -11.4997 H         1 <0>         0.1411
     77 H36         6.7206   10.2023  -13.3811 H         1 <0>         0.1514
     78 H37         9.6411    7.2213  -12.4836 H         1 <0>         0.1496
     79 H38         5.5459    3.9367   -3.0238 H         1 <0>         0.3919
     80 H39         3.7048    1.7795   -3.0860 H         1 <0>         0.4319
@<TRIPOS>BOND
     1    1    2 1
     2    1   45 1
     3    1   46 1
     4    1   47 1
     5    2    3 1
     6    2    4 1
     7    2    5 1
     8    3   48 1
     9    3   49 1
    10    3   50 1
    11    4   51 1
    12    4   52 1
    13    4   53 1
    14    5   10 ar
    15    5    6 ar
    16    6    7 ar
    17    6   54 1
    18    7    8 ar
    19    7   55 1
    20    8    9 ar
    21    8   56 1
    22    9   10 ar
    23    9   11 1
    24   10   57 1
    25   11   12 1
    26   11   58 1
    27   11   59 1
    28   12   13 1
    29   12   60 1
    30   12   80 1
    31   13   14 1
    32   13   61 1
    33   13   62 1
    34   14   15 1
    35   14   16 1
    36   14   44 1
    37   16   17 1
    38   16   18 1
    39   16   25 1
    40   18   19 1
    41   18   63 1
    42   18   64 1
    43   19   24 ar
    44   19   20 ar
    45   20   21 ar
    46   20   65 1
    47   21   22 ar
    48   21   66 1
    49   22   23 ar
    50   22   67 1
    51   23   24 ar
    52   23   68 1
    53   24   69 1
    54   25   26 am
    55   25   70 1
    56   26   27 2
    57   26   28 1
    58   28   29 1
    59   28   34 1
    60   28   30 1
    61   30   31 1
    62   30   71 1
    63   30   72 1
    64   31   32 am
    65   31   35 1
    66   32   33 2
    67   32   34 am
    68   34   73 1
    69   35   36 1
    70   35   74 1
    71   35   75 1
    72   36   41 ar
    73   36   37 ar
    74   37   38 ar
    75   37   76 1
    76   38   39 ar
    77   38   43 1
    78   39   40 ar
    79   39   77 1
    80   40   41 ar
    81   40   42 1
    82   41   78 1
    83   44   79 1
@<TRIPOS>MOLECULE
CHEMBL254891
   56    60     0     0     0
SMALL
USER_CHARGES

@<TRIPOS>ATOM
      1 C1          6.4324    1.3968   -2.2187 C.ar      1 <0>        -0.1533
      2 C2          6.3680    0.0156   -2.2156 C.ar      1 <0>        -0.0820
      3 C3          5.4278   -0.6315   -1.4376 C.ar      1 <0>        -0.1957
      4 C4          4.5474    0.1058   -0.6587 C.ar      1 <0>         0.1215
      5 C5          4.6141    1.4918   -0.6636 C.ar      1 <0>        -0.1462
      6 C6          5.5563    2.1339   -1.4434 C.ar      1 <0>        -0.0826
      7 O1          3.6213   -0.5282    0.1072 O.3       1 <0>        -0.2579
      8 C7          3.5307   -1.8806    0.0100 C.ar      1 <0>         0.0814
      9 C8          4.4771   -2.6844    0.6321 C.ar      1 <0>        -0.1214
     10 C9          4.3890   -4.0567    0.5360 C.ar      1 <0>        -0.1137
     11 C10         3.3459   -4.6385   -0.1879 C.ar      1 <0>        -0.0098
     12 C11         2.3960   -3.8264   -0.8117 C.ar      1 <0>        -0.0864
     13 C12         2.4889   -2.4551   -0.7065 C.ar      1 <0>        -0.1120
     14 C13         3.2478   -6.1086   -0.2940 C.2       1 <0>         0.0654
     15 C14         2.1144   -6.8179   -0.5646 C.2       1 <0>        -0.1643
     16 C15         2.4560   -8.1757   -0.5758 C.2       1 <0>        -0.1667
     17 C16         3.7922   -8.2689   -0.3116 C.2       1 <0>         0.0765
     18 N1          4.2838   -6.9993   -0.1431 N.pl3     1 <0>        -0.4166
     19 C17         5.6762   -6.6519    0.1515 C.3       1 <0>         0.0682
     20 C18         5.9136   -6.7443    1.6368 C.2       1 <0>         0.4957
     21 O2          5.0068   -7.0692    2.3781 O.2       1 <0>        -0.5070
     22 N2          7.1166   -6.4701    2.1370 N.2       1 <0>        -0.7049
     23 C19         7.7630   -7.3842    2.8495 C.2       1 <0>         0.7067
     24 N3          7.2509   -8.6407    2.9709 N.pl3     1 <0>        -0.8610
     25 N4          8.9388   -7.0660    3.4596 N.pl3     1 <0>        -0.8223
     26 C20         4.5735   -9.5187   -0.2269 C.2       1 <0>        -0.0265
     27 C21         5.7442   -9.6482   -0.8985 C.2       1 <0>        -0.1677
     28 S1          6.2840  -11.2944   -0.4806 S.3       1 <0>         0.0411
     29 C22         4.9412  -11.7710    0.5765 C.ar      1 <0>        -0.1125
     30 C23         4.1018  -10.6388    0.5885 C.ar      1 <0>        -0.0758
     31 C24         2.9277  -10.7270    1.3691 C.ar      1 <0>        -0.0627
     32 C25         2.6420  -11.8660    2.0756 C.ar      1 <0>        -0.1222
     33 C26         3.4907  -12.9638    2.0481 C.ar      1 <0>        -0.0897
     34 C27         4.6417  -12.9140    1.2872 C.ar      1 <0>        -0.0821
     35 H1          7.1712    1.9006   -2.8243 H         1 <0>         0.1252
     36 H2          7.0533   -0.5578   -2.8223 H         1 <0>         0.1255
     37 H3          5.3777   -1.7104   -1.4358 H         1 <0>         0.1283
     38 H4          3.9298    2.0680   -0.0586 H         1 <0>         0.1324
     39 H5          5.6089    3.2126   -1.4474 H         1 <0>         0.1313
     40 H6          5.2834   -2.2337    1.1917 H         1 <0>         0.1330
     41 H7          5.1258   -4.6810    1.0195 H         1 <0>         0.1295
     42 H8          1.5879   -4.2723   -1.3724 H         1 <0>         0.1391
     43 H9          1.7525   -1.8265   -1.1850 H         1 <0>         0.1374
     44 H10         1.1311   -6.4065   -0.7385 H         1 <0>         0.1439
     45 H11         1.7836   -9.0006   -0.7599 H         1 <0>         0.1412
     46 H12         6.3406   -7.3436   -0.3664 H         1 <0>         0.1144
     47 H13         5.8760   -5.6349   -0.1858 H         1 <0>         0.1266
     48 H14         9.4113   -7.7341    3.9804 H         1 <0>         0.4127
     49 H15         6.4553   -8.8901    2.4751 H         1 <0>         0.4186
     50 H16         9.3035   -6.1713    3.3732 H         1 <0>         0.4271
     51 H17         7.6817   -9.2859    3.5530 H         1 <0>         0.4047
     52 H18         6.2330   -8.9258   -1.5355 H         1 <0>         0.1860
     53 H19         2.2486   -9.8882    1.4099 H         1 <0>         0.1313
     54 H20         1.7385  -11.9101    2.6657 H         1 <0>         0.1300
     55 H21         3.2489  -13.8528    2.6117 H         1 <0>         0.1358
     56 H22         5.3102  -13.7618    1.2582 H         1 <0>         0.1322
@<TRIPOS>BOND
     1    1    6 ar
     2    1    2 ar
     3    1   35 1
     4    2    3 ar
     5    2   36 1
     6    3    4 ar
     7    3   37 1
     8    4    5 ar
     9    4    7 1
    10    5    6 ar
    11    5   38 1
    12    6   39 1
    13    7    8 1
    14    8   13 ar
    15    8    9 ar
    16    9   10 ar
    17    9   40 1
    18   10   11 ar
    19   10   41 1
    20   11   12 ar
    21   11   14 1
    22   12   13 ar
    23   12   42 1
    24   13   43 1
    25   14   18 1
    26   14   15 2
    27   15   16 1
    28   15   44 1
    29   16   17 2
    30   16   45 1
    31   17   18 1
    32   17   26 1
    33   18   19 1
    34   19   46 1
    35   19   47 1
    36   19   20 1
    37   20   22 1
    38   20   21 2
    39   22   23 2
    40   23   24 1
    41   23   25 1
    42   24   49 1
    43   24   51 1
    44   25   50 1
    45   25   48 1
    46   26   30 1
    47   26   27 2
    48   27   28 1
    49   27   52 1
    50   28   29 1
    51   29   34 ar
    52   29   30 ar
    53   30   31 ar
    54   31   32 ar
    55   31   53 1
    56   32   33 ar
    57   32   54 1
    58   33   34 ar
    59   33   55 1
    60   34   56 1
@<TRIPOS>MOLECULE
CHEMBL523193
   71    75     0     0     0
SMALL
USER_CHARGES

@<TRIPOS>ATOM
      1 C1         -0.0187    1.5258    0.0104 C.3       1 <0>        -0.1491
      2 C2          0.0021   -0.0041    0.0020 C.3       1 <0>        -0.0519
      3 C3          0.7074   -0.4901   -1.2379 C.2       1 <0>        -0.1388
      4 C4          0.1324   -0.8412   -2.3995 C.2       1 <0>         0.0440
      5 N1          1.0940   -1.2593   -3.2975 N.pl3     1 <0>        -0.4804
      6 C5          2.3144   -1.0731   -2.7409 C.ar      1 <0>         0.1197
      7 C6          2.1521   -0.6637   -1.4085 C.ar      1 <0>        -0.1034
      8 C7          3.2675   -0.5261   -0.5862 C.ar      1 <0>        -0.0103
      9 C8          4.5428   -0.7002   -1.1168 C.ar      1 <0>        -0.1723
     10 C9          4.7076   -0.9965   -2.4799 C.ar      1 <0>        -0.0236
     11 C10         3.6116   -1.1601   -3.2852 C.ar      1 <0>         0.1132
     12 N2          3.7104   -1.3598   -4.6683 N.pl3     1 <0>        -0.9543
     13 S1          3.2545   -2.7871   -5.3264 S.o2      1 <0>         2.6176
     14 O1          3.2659   -2.5428   -6.7261 O.2       1 <0>        -0.9418
     15 O2          4.1529   -3.7320   -4.7612 O.2       1 <0>        -0.9443
     16 C11         1.5686   -3.1624   -4.7908 C.3       1 <0>        -0.6628
     17 C12         0.7514   -1.8767   -4.5956 C.3       1 <0>         0.1364
     18 C13         4.2221   -0.2889   -5.5271 C.3       1 <0>         0.0840
     19 C14         5.7266   -0.5733   -0.2432 C.2       1 <0>         0.5706
     20 O3          6.8413   -0.7249   -0.7042 O.2       1 <0>        -0.5345
     21 N3          5.5713   -0.2895    1.0651 N.am      1 <0>        -0.7229
     22 C15         6.7457   -0.1636    1.9318 C.3       1 <0>         0.1244
     23 H1          7.5666    0.2807    1.3690 H         1 <0>         0.1144
     24 C16         6.4045    0.7290    3.1266 C.3       1 <0>        -0.0901
     25 C17         6.1144    2.1265    2.6430 C.ar      1 <0>        -0.0949
     26 C18         7.1396    3.0476    2.5357 C.ar      1 <0>        -0.1120
     27 C19         6.8734    4.3295    2.0920 C.ar      1 <0>        -0.1134
     28 C20         5.5822    4.6901    1.7552 C.ar      1 <0>        -0.1127
     29 C21         4.5571    3.7688    1.8616 C.ar      1 <0>        -0.1137
     30 C22         4.8240    2.4857    2.3012 C.ar      1 <0>        -0.1123
     31 C23         7.1611   -1.5486    2.4321 C.3       1 <0>         0.0712
     32 H2          6.3402   -1.9929    2.9949 H         1 <0>         0.0831
     33 C24         7.5023   -2.4413    1.2372 C.3       1 <0>         0.0049
     34 N4          7.7852   -3.8035    1.7087 N.4       1 <0>        -0.4770
     35 C25         8.1127   -4.6606    0.5615 C.3       1 <0>        -0.0823
     36 C26         7.1705   -5.8276    0.2598 C.3       1 <0>        -0.1547
     37 C27         8.5541   -6.0958    0.8552 C.3       1 <0>        -0.1536
     38 O4          8.3067   -1.4258    3.2774 O.3       1 <0>        -0.5627
     39 H3          1.0039    1.9031    0.0027 H         1 <0>         0.0542
     40 H4         -0.5459    1.8868   -0.8726 H         1 <0>         0.0563
     41 H5         -0.5289    1.8773    0.9072 H         1 <0>         0.0603
     42 H6          0.5293   -0.3651    0.8851 H         1 <0>         0.0716
     43 H7         -1.0205   -0.3814    0.0098 H         1 <0>         0.0753
     44 H8         -0.9278   -0.8025   -2.6016 H         1 <0>         0.1777
     45 H9          3.1437   -0.2848    0.4593 H         1 <0>         0.1294
     46 H10         5.7003   -1.1011   -2.8922 H         1 <0>         0.1482
     47 H11         1.0838   -3.7830   -5.5444 H         1 <0>         0.1652
     48 H12         1.6061   -3.7093   -3.8487 H         1 <0>         0.1456
     49 H13        -0.3117   -2.1168   -4.6135 H         1 <0>         0.1250
     50 H14         0.9777   -1.1774   -5.4005 H         1 <0>         0.0981
     51 H15         5.3041   -0.3833   -5.6199 H         1 <0>         0.0681
     52 H16         3.7649   -0.3645   -6.5137 H         1 <0>         0.0962
     53 H17         3.9783    0.6779   -5.0867 H         1 <0>         0.0793
     54 H18         4.6819   -0.1686    1.4330 H         1 <0>         0.4063
     55 H19         5.5276    0.3321    3.6380 H         1 <0>         0.0861
     56 H20         7.2483    0.7511    3.8163 H         1 <0>         0.0944
     57 H21         8.1484    2.7658    2.7988 H         1 <0>         0.1221
     58 H22         7.6743    5.0493    2.0089 H         1 <0>         0.1255
     59 H23         5.3741    5.6918    1.4092 H         1 <0>         0.1251
     60 H24         3.5482    4.0507    1.5988 H         1 <0>         0.1246
     61 H25         4.0238    1.7647    2.3808 H         1 <0>         0.1162
     62 H26         6.6586   -2.4633    0.5475 H         1 <0>         0.1436
     63 H27         8.3793   -2.0443    0.7259 H         1 <0>         0.1479
     64 H28         8.5662   -3.7830    2.3472 H         1 <0>         0.4333
     65 H29         8.5758   -4.1551   -0.2859 H         1 <0>         0.1784
     66 H30         6.3075   -5.9595    0.9125 H         1 <0>         0.1193
     67 H31         7.0133   -6.0900   -0.7864 H         1 <0>         0.1345
     68 H32         9.3072   -6.5346    0.2007 H         1 <0>         0.1340
     69 H33         8.6014   -6.4040    1.8996 H         1 <0>         0.1203
     70 H34         8.1627   -0.8722    4.0571 H         1 <0>         0.4041
     71 H35         6.9734   -4.1709    2.1821 H         1 <0>         0.4199
@<TRIPOS>BOND
     1    1    2 1
     2    1   39 1
     3    1   40 1
     4    1   41 1
     5    2    3 1
     6    2   42 1
     7    2   43 1
     8    3    7 1
     9    3    4 2
    10    4    5 1
    11    4   44 1
    12    5   17 1
    13    5    6 1
    14    6   11 ar
    15    6    7 ar
    16    7    8 ar
    17    8    9 ar
    18    8   45 1
    19    9   10 ar
    20    9   19 1
    21   10   11 ar
    22   10   46 1
    23   11   12 1
    24   12   13 1
    25   12   18 1
    26   13   14 2
    27   13   15 2
    28   13   16 1
    29   16   17 1
    30   16   47 1
    31   16   48 1
    32   17   49 1
    33   17   50 1
    34   18   51 1
    35   18   52 1
    36   18   53 1
    37   19   20 2
    38   19   21 am
    39   21   22 1
    40   21   54 1
    41   22   23 1
    42   22   24 1
    43   22   31 1
    44   24   25 1
    45   24   55 1
    46   24   56 1
    47   25   30 ar
    48   25   26 ar
    49   26   27 ar
    50   26   57 1
    51   27   28 ar
    52   27   58 1
    53   28   29 ar
    54   28   59 1
    55   29   30 ar
    56   29   60 1
    57   30   61 1
    58   31   32 1
    59   31   33 1
    60   31   38 1
    61   33   34 1
    62   33   62 1
    63   33   63 1
    64   34   35 1
    65   34   64 1
    66   34   71 1
    67   35   37 1
    68   35   36 1
    69   35   65 1
    70   36   37 1
    71   36   66 1
    72   36   67 1
    73   37   68 1
    74   37   69 1
    75   38   70 1
@<TRIPOS>MOLECULE
CHEMBL595066
   88    92     0     0     0
SMALL
USER_CHARGES

@<TRIPOS>ATOM
      1 C1          1.9524    1.0481  -10.4871 C.3       1 <0>        -0.1481
      2 C2          0.4550    1.2517  -10.2474 C.3       1 <0>        -0.0623
      3 C3         -0.2702    1.3333  -11.5922 C.3       1 <0>        -0.1491
      4 C4         -0.0888    0.0923   -9.4530 C.ar      1 <0>        -0.0508
      5 C5          0.0023   -1.1928   -9.9548 C.ar      1 <0>        -0.0958
      6 C6         -0.4964   -2.2561   -9.2262 C.ar      1 <0>        -0.0962
      7 C7         -1.0859   -2.0347   -7.9953 C.ar      1 <0>        -0.1358
      8 C8         -1.1761   -0.7502   -7.4933 C.ar      1 <0>        -0.0761
      9 C9         -0.6734    0.3130   -8.2202 C.ar      1 <0>        -0.0991
     10 C10        -1.8191   -0.5089   -6.1518 C.3       1 <0>        -0.0055
     11 C11        -1.6302    0.8697   -5.5156 C.3       1 <0>        -0.1454
     12 C12        -2.9896    0.4749   -6.0962 C.3       1 <0>        -0.1368
     13 N1         -1.8659   -1.6703   -5.2536 N.4       1 <0>        -0.4649
     14 C13        -0.5001   -2.0381   -4.8573 C.3       1 <0>        -0.0615
     15 C14        -0.5399   -3.3142   -4.0140 C.3       1 <0>         0.0680
     16 H1         -1.2352   -3.1805   -3.1853 H         1 <0>         0.1782
     17 C15         0.8579   -3.6064   -3.4648 C.3       1 <0>         0.1260
     18 H2          1.1245   -2.8505   -2.7262 H         1 <0>         0.0947
     19 C16         1.8713   -3.5826   -4.6086 C.3       1 <0>        -0.1065
     20 C17         3.2488   -3.3142   -4.0591 C.ar      1 <0>        -0.0666
     21 C18         3.9109   -2.1443   -4.3773 C.ar      1 <0>        -0.1372
     22 C19         5.1742   -1.9034   -3.8709 C.ar      1 <0>        -0.0824
     23 C20         5.7803   -2.8320   -3.0484 C.ar      1 <0>        -0.1354
     24 C21         5.1182   -4.0085   -2.7292 C.ar      1 <0>         0.1274
     25 C22         3.8500   -4.2501   -3.2378 C.ar      1 <0>        -0.1769
     26 O1          5.7161   -4.9257   -1.9247 O.3       1 <0>        -0.3230
     27 C23         4.9257   -5.4764   -0.8694 C.3       1 <0>         0.0622
     28 C24         5.1567   -6.9876   -0.7885 C.3       1 <0>        -0.1330
     29 C25         4.0576   -7.6294    0.0619 C.3       1 <0>        -0.1419
     30 C26         3.2259   -8.5737   -0.8048 C.3       1 <0>         0.1120
     31 N2          2.0497   -9.0299   -0.0192 N.pl3     1 <0>        -0.7527
     32 C27         0.8505   -8.3402   -0.3087 C.ar      1 <0>         0.2048
     33 C28        -0.3467   -8.7880    0.2310 C.ar      1 <0>        -0.1340
     34 C29        -1.5240   -8.1190   -0.0474 C.ar      1 <0>        -0.0505
     35 C30        -1.5139   -7.0017   -0.8570 C.ar      1 <0>        -0.0866
     36 C31        -0.3151   -6.5442   -1.4043 C.ar      1 <0>        -0.1054
     37 C32         0.8726   -7.2304   -1.1370 C.ar      1 <0>        -0.1613
     38 C33        -0.2952   -5.3238   -2.2372 C.2       1 <0>         0.5839
     39 O2         -1.3064   -4.6668   -2.3898 O.2       1 <0>        -0.5213
     40 N3          0.8706   -4.9432   -2.8310 N.am      1 <0>        -0.7267
     41 C34        -2.8233   -8.6121    0.5352 C.3       1 <0>         0.0984
     42 O3         -3.0457   -7.9867    1.8007 O.3       1 <0>        -0.3848
     43 C35        -4.2583   -8.3874    2.4420 C.3       1 <0>         0.0291
     44 O4         -0.9711   -4.4083   -4.8258 O.3       1 <0>        -0.5328
     45 H3          2.3457    1.8867  -11.0617 H         1 <0>         0.0664
     46 H4          2.4690    0.9900   -9.5291 H         1 <0>         0.0566
     47 H5          2.1091    0.1227  -11.0412 H         1 <0>         0.0593
     48 H6          0.2982    2.1772   -9.6934 H         1 <0>         0.0819
     49 H7          0.1231    2.1719  -12.1668 H         1 <0>         0.0666
     50 H8         -0.1135    0.4078  -12.1463 H         1 <0>         0.0594
     51 H9         -1.3370    1.4783  -11.4215 H         1 <0>         0.0575
     52 H10         0.4628   -1.3657  -10.9163 H         1 <0>         0.1336
     53 H11        -0.4260   -3.2598   -9.6185 H         1 <0>         0.1346
     54 H12        -1.4763   -2.8655   -7.4263 H         1 <0>         0.1162
     55 H13        -0.7405    1.3163   -7.8262 H         1 <0>         0.1319
     56 H14        -1.5404    0.9151   -4.4303 H         1 <0>         0.1251
     57 H15        -1.0408    1.6021   -6.0673 H         1 <0>         0.1345
     58 H16        -3.2946    0.9476   -7.0298 H         1 <0>         0.1345
     59 H17        -3.7942    0.2605   -5.3928 H         1 <0>         0.1261
     60 H18        -2.4036   -1.4384   -4.4319 H         1 <0>         0.4302
     61 H19         0.1030   -2.2105   -5.7487 H         1 <0>         0.1352
     62 H20        -0.0612   -1.2297   -4.2724 H         1 <0>         0.1407
     63 H21         1.8655   -4.5459   -5.1187 H         1 <0>         0.0933
     64 H22         1.6030   -2.7969   -5.3149 H         1 <0>         0.0893
     65 H23         3.4410   -1.4171   -5.0229 H         1 <0>         0.1232
     66 H24         5.6886   -0.9869   -4.1195 H         1 <0>         0.1333
     67 H25         6.7680   -2.6430   -2.6545 H         1 <0>         0.1356
     68 H26         3.3340   -5.1668   -2.9931 H         1 <0>         0.1178
     69 H27         5.2103   -5.0147    0.0761 H         1 <0>         0.0762
     70 H28         3.8715   -5.2805   -1.0655 H         1 <0>         0.0594
     71 H29         5.1340   -7.4125   -1.7920 H         1 <0>         0.0765
     72 H30         6.1280   -7.1825   -0.3339 H         1 <0>         0.0808
     73 H31         4.5116   -8.1912    0.8783 H         1 <0>         0.0763
     74 H32         3.4140   -6.8508    0.4713 H         1 <0>         0.0704
     75 H33         2.8876   -8.0478   -1.6976 H         1 <0>         0.0777
     76 H34         3.8302   -9.4343   -1.0915 H         1 <0>         0.0786
     77 H35         2.1008   -9.7419    0.6376 H         1 <0>         0.4143
     78 H36        -0.3589   -9.6597    0.8685 H         1 <0>         0.1304
     79 H37        -2.4361   -6.4805   -1.0676 H         1 <0>         0.1336
     80 H38         1.8024   -6.8974   -1.5740 H         1 <0>         0.1243
     81 H39         1.6563   -5.5120   -2.8389 H         1 <0>         0.4113
     82 H40        -3.6417   -8.3650   -0.1410 H         1 <0>         0.0625
     83 H41        -2.7752   -9.6930    0.6676 H         1 <0>         0.0624
     84 H42        -5.1064   -8.1356    1.8053 H         1 <0>         0.0439
     85 H43        -4.2399   -9.4636    2.6139 H         1 <0>         0.0446
     86 H44        -4.3534   -7.8686    3.3959 H         1 <0>         0.0900
     87 H45        -0.3978   -4.5853   -5.5842 H         1 <0>         0.3736
     88 H46        -2.2985   -2.4471   -5.7305 H         1 <0>         0.4325
@<TRIPOS>BOND
     1    1    2 1
     2    1   45 1
     3    1   46 1
     4    1   47 1
     5    2    3 1
     6    2    4 1
     7    2   48 1
     8    3   49 1
     9    3   50 1
    10    3   51 1
    11    4    9 ar
    12    4    5 ar
    13    5    6 ar
    14    5   52 1
    15    6    7 ar
    16    6   53 1
    17    7    8 ar
    18    7   54 1
    19    8    9 ar
    20    8   10 1
    21    9   55 1
    22   10   12 1
    23   10   11 1
    24   10   13 1
    25   11   12 1
    26   11   56 1
    27   11   57 1
    28   12   58 1
    29   12   59 1
    30   13   14 1
    31   13   60 1
    32   13   88 1
    33   14   15 1
    34   14   61 1
    35   14   62 1
    36   15   16 1
    37   15   17 1
    38   15   44 1
    39   17   18 1
    40   17   40 1
    41   17   19 1
    42   19   20 1
    43   19   63 1
    44   19   64 1
    45   20   25 ar
    46   20   21 ar
    47   21   22 ar
    48   21   65 1
    49   22   23 ar
    50   22   66 1
    51   23   24 ar
    52   23   67 1
    53   24   25 ar
    54   24   26 1
    55   25   68 1
    56   26   27 1
    57   27   28 1
    58   27   69 1
    59   27   70 1
    60   28   29 1
    61   28   71 1
    62   28   72 1
    63   29   30 1
    64   29   73 1
    65   29   74 1
    66   30   31 1
    67   30   75 1
    68   30   76 1
    69   31   32 1
    70   31   77 1
    71   32   37 ar
    72   32   33 ar
    73   33   34 ar
    74   33   78 1
    75   34   35 ar
    76   34   41 1
    77   35   36 ar
    78   35   79 1
    79   36   37 ar
    80   36   38 1
    81   37   80 1
    82   38   39 2
    83   38   40 am
    84   40   81 1
    85   41   42 1
    86   41   82 1
    87   41   83 1
    88   42   43 1
    89   43   84 1
    90   43   85 1
    91   43   86 1
    92   44   87 1
@<TRIPOS>MOLECULE
CHEMBL1092504
   86    87     0     0     0
SMALL
USER_CHARGES

@<TRIPOS>ATOM
      1 C1          7.6280   -0.0375    0.0763 C.3       1 <0>        -0.1533
      2 C2          7.4439   -1.5379   -0.1597 C.3       1 <0>        -0.1223
      3 C3          6.0617   -1.7933   -0.7640 C.3       1 <0>        -0.1322
      4 C4          5.8775   -3.2937   -1.0000 C.3       1 <0>         0.1165
      5 N1          4.5541   -3.5382   -1.5787 N.am      1 <0>        -0.7310
      6 C5          4.1691   -4.7959   -1.8728 C.2       1 <0>         0.5183
      7 O1          4.9182   -5.7252   -1.6584 O.2       1 <0>        -0.5377
      8 C6          2.8077   -5.0474   -2.4681 C.3       1 <0>        -0.1092
      9 H1          2.7223   -4.5173   -3.4167 H         1 <0>         0.1055
     10 C7          1.7295   -4.5464   -1.5051 C.3       1 <0>        -0.1454
     11 C8          2.6235   -6.5478   -2.7041 C.3       1 <0>        -0.1285
     12 C9          3.6176   -7.0230   -3.7656 C.3       1 <0>         0.0939
     13 H2          4.6313   -6.7743   -3.4513 H         1 <0>         0.1306
     14 C10         3.4943   -8.5382   -3.9378 C.3       1 <0>         0.1255
     15 H3          3.7119   -9.0306   -2.9900 H         1 <0>         0.0982
     16 C11         4.4885   -9.0134   -4.9994 C.3       1 <0>        -0.0881
     17 C12         4.4544  -10.5178   -5.0819 C.ar      1 <0>        -0.0620
     18 C13         5.2927  -11.2729   -4.2832 C.ar      1 <0>        -0.1071
     19 C14         5.2614  -12.6529   -4.3589 C.ar      1 <0>        -0.1119
     20 C15         4.3916  -13.2776   -5.2330 C.ar      1 <0>        -0.1211
     21 C16         3.5528  -12.5224   -6.0311 C.ar      1 <0>        -0.1133
     22 C17         3.5810  -11.1426   -5.9523 C.ar      1 <0>        -0.1102
     23 N2          2.1320   -8.8725   -4.3603 N.am      1 <0>        -0.7294
     24 C18         1.6267  -10.0947   -4.1008 C.2       1 <0>         0.5176
     25 O2          2.2999  -10.9179   -3.5176 O.2       1 <0>        -0.5088
     26 C19         0.2253  -10.4385   -4.5354 C.3       1 <0>        -0.1023
     27 H4          0.1478  -10.3461   -5.6187 H         1 <0>         0.0929
     28 C20        -0.7646   -9.4805   -3.8697 C.3       1 <0>        -0.1099
     29 C21        -2.1874   -9.8295   -4.3108 C.3       1 <0>        -0.1165
     30 C22        -2.5116  -11.2664   -3.8971 C.3       1 <0>        -0.1150
     31 C23        -1.5217  -12.2245   -4.5628 C.3       1 <0>        -0.0945
     32 H5         -1.5992  -12.1320   -5.6461 H         1 <0>         0.0788
     33 C24        -0.0989  -11.8754   -4.1216 C.3       1 <0>        -0.0892
     34 C25        -1.8459  -13.6614   -4.1490 C.3       1 <0>         0.1551
     35 H6         -1.6912  -13.7742   -3.0760 H         1 <0>         0.0881
     36 C26        -0.9286  -14.6279   -4.9009 C.3       1 <0>        -0.1088
     37 C27        -1.1625  -16.0521   -4.3933 C.3       1 <0>        -0.1391
     38 C28        -1.2370  -14.5631   -6.3982 C.3       1 <0>        -0.1455
     39 N3         -3.2426  -13.9601   -4.4752 N.am      1 <0>        -0.7221
     40 C29        -3.9044  -14.9154   -3.7927 C.2       1 <0>         0.5090
     41 O3         -3.3438  -15.5278   -2.9086 O.2       1 <0>        -0.5387
     42 C30        -5.3411  -15.2228   -4.1281 C.3       1 <0>        -0.1735
     43 O4          3.3323   -6.3775   -5.0082 O.3       1 <0>        -0.5529
     44 H7          7.5427    0.4926   -0.8723 H         1 <0>         0.0547
     45 H8          6.8599    0.3194    0.7624 H         1 <0>         0.0545
     46 H9          8.6127    0.1444    0.5069 H         1 <0>         0.0569
     47 H10         8.2120   -1.8948   -0.8457 H         1 <0>         0.0656
     48 H11         7.5292   -2.0680    0.7889 H         1 <0>         0.0653
     49 H12         5.2936   -1.4364   -0.0780 H         1 <0>         0.0687
     50 H13         5.9763   -1.2631   -1.7126 H         1 <0>         0.0693
     51 H14         6.6456   -3.6506   -1.6861 H         1 <0>         0.0680
     52 H15         5.9628   -3.8238   -0.0514 H         1 <0>         0.0675
     53 H16         3.9549   -2.7949   -1.7502 H         1 <0>         0.4002
     54 H17         0.7490   -4.6559   -1.9686 H         1 <0>         0.0688
     55 H18         1.7638   -5.1306   -0.5855 H         1 <0>         0.0616
     56 H19         1.9074   -3.4959   -1.2751 H         1 <0>         0.0604
     57 H20         2.8008   -7.0865   -1.7732 H         1 <0>         0.0827
     58 H21         1.6067   -6.7396   -3.0468 H         1 <0>         0.0732
     59 H22         4.2172   -8.5902   -5.9665 H         1 <0>         0.0781
     60 H23         5.4926   -8.6870   -4.7287 H         1 <0>         0.0798
     61 H24         5.9722  -10.7848   -3.6003 H         1 <0>         0.1135
     62 H25         5.9168  -13.2428   -3.7354 H         1 <0>         0.1150
     63 H26         4.3677  -14.3557   -5.2927 H         1 <0>         0.1140
     64 H27         2.8735  -13.0105   -6.7142 H         1 <0>         0.1122
     65 H28         2.9230  -10.5527   -6.5731 H         1 <0>         0.1069
     66 H29         1.5935   -8.2141   -4.8267 H         1 <0>         0.3906
     67 H30        -0.6871   -9.5729   -2.7864 H         1 <0>         0.0683
     68 H31        -0.5336   -8.4568   -4.1644 H         1 <0>         0.0636
     69 H32        -2.8926   -9.1470   -3.8366 H         1 <0>         0.0664
     70 H33        -2.2649   -9.7371   -5.3941 H         1 <0>         0.0642
     71 H34        -2.4341  -11.3588   -2.8138 H         1 <0>         0.0642
     72 H35        -3.5252  -11.5151   -4.2114 H         1 <0>         0.0637
     73 H36         0.6063  -12.5580   -4.5959 H         1 <0>         0.0771
     74 H37        -0.0214  -11.9678   -3.0383 H         1 <0>         0.0714
     75 H38         0.1111  -14.3479   -4.7317 H         1 <0>         0.0813
     76 H39        -0.5090  -16.7407   -4.9289 H         1 <0>         0.0449
     77 H40        -0.9428  -16.0983   -3.3266 H         1 <0>         0.0582
     78 H41        -2.2023  -16.3320   -4.5625 H         1 <0>         0.0549
     79 H42        -0.9772  -13.5758   -6.7802 H         1 <0>         0.0538
     80 H43        -0.6540  -15.3204   -6.9223 H         1 <0>         0.0535
     81 H44        -2.2993  -14.7468   -6.5586 H         1 <0>         0.0533
     82 H45        -3.6910  -13.4704   -5.1823 H         1 <0>         0.3981
     83 H46        -5.6704  -14.5767   -4.9420 H         1 <0>         0.0735
     84 H47        -5.4278  -16.2654   -4.4340 H         1 <0>         0.0934
     85 H48        -5.9643  -15.0485   -3.2510 H         1 <0>         0.0937
     86 H49         2.4448   -6.5547   -5.3488 H         1 <0>         0.3644
@<TRIPOS>BOND
     1    1    2 1
     2    1   44 1
     3    1   45 1
     4    1   46 1
     5    2    3 1
     6    2   47 1
     7    2   48 1
     8    3    4 1
     9    3   49 1
    10    3   50 1
    11    4    5 1
    12    4   51 1
    13    4   52 1
    14    5    6 am
    15    5   53 1
    16    6    7 2
    17    6    8 1
    18    8    9 1
    19    8   10 1
    20    8   11 1
    21   10   54 1
    22   10   55 1
    23   10   56 1
    24   11   12 1
    25   11   57 1
    26   11   58 1
    27   12   13 1
    28   12   14 1
    29   12   43 1
    30   14   15 1
    31   14   16 1
    32   14   23 1
    33   16   17 1
    34   16   59 1
    35   16   60 1
    36   17   22 ar
    37   17   18 ar
    38   18   19 ar
    39   18   61 1
    40   19   20 ar
    41   19   62 1
    42   20   21 ar
    43   20   63 1
    44   21   22 ar
    45   21   64 1
    46   22   65 1
    47   23   24 am
    48   23   66 1
    49   24   25 2
    50   24   26 1
    51   26   27 1
    52   26   33 1
    53   26   28 1
    54   28   29 1
    55   28   67 1
    56   28   68 1
    57   29   30 1
    58   29   69 1
    59   29   70 1
    60   30   31 1
    61   30   71 1
    62   30   72 1
    63   31   32 1
    64   31   33 1
    65   31   34 1
    66   33   73 1
    67   33   74 1
    68   34   35 1
    69   34   36 1
    70   34   39 1
    71   36   37 1
    72   36   38 1
    73   36   75 1
    74   37   76 1
    75   37   77 1
    76   37   78 1
    77   38   79 1
    78   38   80 1
    79   38   81 1
    80   39   40 am
    81   39   82 1
    82   40   41 2
    83   40   42 1
    84   42   83 1
    85   42   84 1
    86   42   85 1
    87   43   86 1
@<TRIPOS>MOLECULE
CHEMBL566112
   50    54     0     0     0
SMALL
USER_CHARGES

@<TRIPOS>ATOM
      1 C1         -0.0167    1.3788    0.0096 C.ar      1 <0>        -0.1192
      2 C2          1.1677    2.0877    0.0021 C.ar      1 <0>        -0.0927
      3 C3          2.3836    1.4075   -0.0131 C.ar      1 <0>        -0.0613
      4 C4          2.3965    0.0139   -0.0207 C.ar      1 <0>        -0.0562
      5 C5          1.2065   -0.6846   -0.0130 C.ar      1 <0>        -0.0730
      6 C6          0.0021   -0.0041    0.0020 C.ar      1 <0>        -0.0959
      7 C7          1.2188   -2.1915   -0.0217 C.3       1 <0>         0.2598
      8 C8          0.0496   -2.7390    0.7826 C.2       1 <0>         0.3385
      9 N1         -1.2365   -2.7389    0.8067 N.2       1 <0>        -0.5167
     10 C9         -1.7291   -3.5281    1.9417 C.3       1 <0>         0.0266
     11 C10        -0.4456   -4.0286    2.6312 C.3       1 <0>         0.0879
     12 N2          0.6300   -3.4580    1.7971 N.pl3     1 <0>        -0.6265
     13 C11         2.0007   -3.4033    1.6932 C.2       1 <0>         0.6334
     14 N3          2.4042   -2.7012    0.6822 N.2       1 <0>        -0.5835
     15 N4          2.8537   -4.0296    2.5707 N.pl3     1 <0>        -0.8295
     16 C12         1.1802   -2.7107   -1.4359 C.ar      1 <0>        -0.0905
     17 C13        -0.0347   -2.9669   -2.0442 C.ar      1 <0>        -0.0694
     18 C14        -0.0728   -3.4433   -3.3403 C.ar      1 <0>        -0.1239
     19 C15         1.1094   -3.6642   -4.0319 C.ar      1 <0>         0.1095
     20 C16         2.3272   -3.4060   -3.4195 C.ar      1 <0>        -0.1944
     21 C17         2.3597   -2.9247   -2.1249 C.ar      1 <0>        -0.0394
     22 O1          1.0747   -4.1333   -5.3069 O.3       1 <0>        -0.3102
     23 C18         2.3305   -4.3372   -5.9576 C.3       1 <0>         0.6037
     24 F1          3.0844   -5.2681   -5.2350 F         1 <0>        -0.1646
     25 F2          2.1118   -4.8187   -7.2528 F         1 <0>        -0.1306
     26 F3          3.0247   -3.1242   -6.0220 F         1 <0>        -0.1639
     27 C19         3.6599    2.1640   -0.0217 C.ar      1 <0>        -0.1137
     28 C20         3.8652    3.1994   -0.9362 C.ar      1 <0>        -0.0374
     29 C21         5.0735    3.8751   -0.9039 C.ar      1 <0>        -0.1803
     30 C22         6.0305    3.5078    0.0235 C.ar      1 <0>         0.1352
     31 N5          5.8105    2.5251    0.8760 N.ar      1 <0>        -0.5114
     32 C23         4.6733    1.8564    0.8881 C.ar      1 <0>         0.3182
     33 F4          4.4902    0.8619    1.7841 F         1 <0>        -0.1045
     34 H1         -0.9597    1.9050    0.0260 H         1 <0>         0.1295
     35 H2          1.1519    3.1676    0.0077 H         1 <0>         0.1257
     36 H3          3.3362   -0.5184   -0.0328 H         1 <0>         0.1350
     37 H4         -0.9270   -0.5547    0.0083 H         1 <0>         0.1380
     38 H5         -2.3082   -2.9018    2.6202 H         1 <0>         0.1016
     39 H6         -2.3276   -4.3690    1.5915 H         1 <0>         0.1018
     40 H7         -0.3838   -3.6492    3.6512 H         1 <0>         0.0870
     41 H8         -0.4032   -5.1177    2.6215 H         1 <0>         0.0872
     42 H9          2.4959   -4.5439    3.3112 H         1 <0>         0.4100
     43 H10         3.8133   -3.9572    2.4493 H         1 <0>         0.4261
     44 H11        -0.9548   -2.7947   -1.5054 H         1 <0>         0.1494
     45 H12        -1.0220   -3.6439   -3.8147 H         1 <0>         0.1414
     46 H13         3.2489   -3.5772   -3.9557 H         1 <0>         0.1355
     47 H14         3.3073   -2.7193   -1.6493 H         1 <0>         0.1431
     48 H15         3.1007    3.4662   -1.6510 H         1 <0>         0.1476
     49 H16         5.2664    4.6808   -1.5967 H         1 <0>         0.1477
     50 H17         6.9736    4.0334    0.0505 H         1 <0>         0.1693
@<TRIPOS>BOND
     1    1    6 ar
     2    1    2 ar
     3    1   34 1
     4    2    3 ar
     5    2   35 1
     6    3    4 ar
     7    3   27 1
     8    4    5 ar
     9    4   36 1
    10    5    6 ar
    11    5    7 1
    12    6   37 1
    13    7   14 1
    14    7    8 1
    15    7   16 1
    16    8   12 1
    17    8    9 2
    18    9   10 1
    19   10   11 1
    20   10   38 1
    21   10   39 1
    22   11   12 1
    23   11   40 1
    24   11   41 1
    25   12   13 1
    26   13   14 2
    27   13   15 1
    28   15   42 1
    29   15   43 1
    30   16   21 ar
    31   16   17 ar
    32   17   18 ar
    33   17   44 1
    34   18   19 ar
    35   18   45 1
    36   19   20 ar
    37   19   22 1
    38   20   21 ar
    39   20   46 1
    40   21   47 1
    41   22   23 1
    42   23   24 1
    43   23   25 1
    44   23   26 1
    45   27   32 ar
    46   27   28 ar
    47   28   29 ar
    48   28   48 1
    49   29   30 ar
    50   29   49 1
    51   30   31 ar
    52   30   50 1
    53   31   32 ar
    54   32   33 1
@<TRIPOS>MOLECULE
CHEMBL566112__1
   51    55     0     0     0
SMALL
USER_CHARGES

@<TRIPOS>ATOM
      1 C1         -0.0167    1.3788    0.0096 C.ar      1 <0>        -0.1018
      2 C2          1.1677    2.0877    0.0021 C.ar      1 <0>        -0.0790
      3 C3          2.3836    1.4075   -0.0131 C.ar      1 <0>        -0.0322
      4 C4          2.3965    0.0139   -0.0207 C.ar      1 <0>        -0.0490
      5 C5          1.2065   -0.6846   -0.0130 C.ar      1 <0>        -0.0940
      6 C6          0.0021   -0.0041    0.0020 C.ar      1 <0>        -0.1150
      7 C7          1.2188   -2.1915   -0.0217 C.3       1 <0>         0.2466
      8 C8          0.0496   -2.7390    0.7826 C.cat     1 <0>         0.4770
      9 N1         -1.2365   -2.7389    0.8067 N.pl3     1 <0>        -0.5682
     10 C9         -1.7291   -3.5281    1.9417 C.3       1 <0>         0.0570
     11 C10        -0.4456   -4.0286    2.6312 C.3       1 <0>         0.0784
     12 N2          0.6300   -3.4580    1.7971 N.pl3     1 <0>        -0.5536
     13 C11         2.0007   -3.4033    1.6932 C.2       1 <0>         0.6270
     14 N3          2.4042   -2.7012    0.6822 N.2       1 <0>        -0.5275
     15 N4          2.8537   -4.0296    2.5707 N.pl3     1 <0>        -0.8039
     16 C12         1.1802   -2.7107   -1.4359 C.ar      1 <0>        -0.1165
     17 C13        -0.0347   -2.9669   -2.0442 C.ar      1 <0>        -0.0817
     18 C14        -0.0728   -3.4433   -3.3403 C.ar      1 <0>        -0.1131
     19 C15         1.1094   -3.6642   -4.0319 C.ar      1 <0>         0.1345
     20 C16         2.3272   -3.4060   -3.4195 C.ar      1 <0>        -0.1820
     21 C17         2.3597   -2.9247   -2.1249 C.ar      1 <0>        -0.0238
     22 O1          1.0747   -4.1333   -5.3069 O.3       1 <0>        -0.3070
     23 C18         2.3305   -4.3372   -5.9576 C.3       1 <0>         0.6050
     24 F1          3.0844   -5.2681   -5.2350 F         1 <0>        -0.1613
     25 F2          2.1118   -4.8187   -7.2528 F         1 <0>        -0.1219
     26 F3          3.0247   -3.1242   -6.0220 F         1 <0>        -0.1602
     27 C19         3.6599    2.1640   -0.0217 C.ar      1 <0>        -0.1354
     28 C20         3.8652    3.1994   -0.9362 C.ar      1 <0>        -0.0310
     29 C21         5.0735    3.8751   -0.9039 C.ar      1 <0>        -0.1767
     30 C22         6.0305    3.5078    0.0235 C.ar      1 <0>         0.1477
     31 N5          5.8105    2.5251    0.8760 N.ar      1 <0>        -0.5084
     32 C23         4.6733    1.8564    0.8881 C.ar      1 <0>         0.3228
     33 F4          4.4902    0.8619    1.7841 F         1 <0>        -0.1077
     34 H1         -0.9597    1.9050    0.0260 H         1 <0>         0.1401
     35 H2          1.1519    3.1676    0.0077 H         1 <0>         0.1383
     36 H3          3.3362   -0.5184   -0.0328 H         1 <0>         0.1435
     37 H4         -0.9270   -0.5547    0.0083 H         1 <0>         0.1059
     38 H5         -2.3082   -2.9018    2.6202 H         1 <0>         0.1437
     39 H6         -2.3276   -4.3690    1.5915 H         1 <0>         0.1439
     40 H7         -0.3838   -3.6492    3.6512 H         1 <0>         0.1332
     41 H8         -0.4032   -5.1177    2.6215 H         1 <0>         0.1334
     42 H9          2.4959   -4.5439    3.3112 H         1 <0>         0.4217
     43 H10         3.8133   -3.9572    2.4493 H         1 <0>         0.4423
     44 H11        -0.9548   -2.7947   -1.5054 H         1 <0>         0.1172
     45 H12        -1.0220   -3.6439   -3.8147 H         1 <0>         0.1521
     46 H13         3.2489   -3.5772   -3.9557 H         1 <0>         0.1474
     47 H14         3.3073   -2.7193   -1.6493 H         1 <0>         0.1520
     48 H15         3.1007    3.4662   -1.6510 H         1 <0>         0.1498
     49 H16         5.2664    4.6808   -1.5967 H         1 <0>         0.1531
     50 H17         6.9736    4.0334    0.0505 H         1 <0>         0.1748
     51 H18        -1.8016   -2.2809    0.1650 H         1 <0>         0.4626
@<TRIPOS>BOND
     1    1    6 ar
     2    1    2 ar
     3    1   34 1
     4    2    3 ar
     5    2   35 1
     6    3    4 ar
     7    3   27 1
     8    4    5 ar
     9    4   36 1
    10    5    6 ar
    11    5    7 1
    12    6   37 1
    13    7   14 1
    14    7    8 1
    15    7   16 1
    16    8   12 1
    17    8    9 2
    18    9   10 1
    19    9   51 1
    20   10   11 1
    21   10   38 1
    22   10   39 1
    23   11   12 1
    24   11   40 1
    25   11   41 1
    26   12   13 1
    27   13   14 2
    28   13   15 1
    29   15   42 1
    30   15   43 1
    31   16   21 ar
    32   16   17 ar
    33   17   18 ar
    34   17   44 1
    35   18   19 ar
    36   18   45 1
    37   19   20 ar
    38   19   22 1
    39   20   21 ar
    40   20   46 1
    41   21   47 1
    42   22   23 1
    43   23   24 1
    44   23   25 1
    45   23   26 1
    46   27   32 ar
    47   27   28 ar
    48   28   29 ar
    49   28   48 1
    50   29   30 ar
    51   29   49 1
    52   30   31 ar
    53   30   50 1
    54   31   32 ar
    55   32   33 1
@<TRIPOS>MOLECULE
CHEMBL566112__2
   50    54     0     0     0
SMALL
USER_CHARGES

@<TRIPOS>ATOM
      1 C1         -0.0167    1.3788    0.0096 C.ar      1 <0>        -0.1192
      2 C2          1.1677    2.0877    0.0021 C.ar      1 <0>        -0.0926
      3 C3          2.3836    1.4075   -0.0131 C.ar      1 <0>        -0.0613
      4 C4          2.3965    0.0139   -0.0207 C.ar      1 <0>        -0.0565
      5 C5          1.2065   -0.6846   -0.0130 C.ar      1 <0>        -0.0729
      6 C6          0.0021   -0.0041    0.0020 C.ar      1 <0>        -0.0958
      7 C7          1.2188   -2.1915   -0.0217 C.3       1 <0>         0.2605
      8 C8          0.0341   -2.7300   -0.8093 C.2       1 <0>         0.3386
      9 N1         -1.2522   -2.7288   -0.8091 N.2       1 <0>        -0.5160
     10 C9         -1.7668   -3.5043   -1.9437 C.3       1 <0>         0.0264
     11 C10        -0.4970   -3.9974   -2.6632 C.3       1 <0>         0.0880
     12 N2          0.5946   -3.4374   -1.8429 N.pl3     1 <0>        -0.6266
     13 C11         1.9671   -3.3848   -1.7643 C.2       1 <0>         0.6322
     14 N3          2.3902   -2.6931   -0.7543 N.2       1 <0>        -0.5838
     15 N4          2.8028   -4.0016   -2.6649 N.pl3     1 <0>        -0.8302
     16 C12         1.2077   -2.7267    1.3870 C.ar      1 <0>        -0.0920
     17 C13         0.0050   -3.0006    2.0118 C.ar      1 <0>        -0.0700
     18 C14        -0.0079   -3.4908    3.3033 C.ar      1 <0>        -0.1245
     19 C15         1.1872   -3.7087    3.9732 C.ar      1 <0>         0.1100
     20 C16         2.3927   -3.4336    3.3439 C.ar      1 <0>        -0.1934
     21 C17         2.4003   -2.9484    2.0505 C.ar      1 <0>        -0.0373
     22 O1          1.1772   -4.1905    5.2439 O.3       1 <0>        -0.3105
     23 C18         2.4451   -4.3904    5.8720 C.3       1 <0>         0.6034
     24 F1          3.1304   -3.1725    5.9371 F         1 <0>        -0.1628
     25 F2          2.2516   -4.8864    7.1657 F         1 <0>        -0.1309
     26 F3          3.1946   -5.3080    5.1280 F         1 <0>        -0.1648
     27 C19         3.6599    2.1640   -0.0217 C.ar      1 <0>        -0.1136
     28 C20         3.8652    3.1994   -0.9362 C.ar      1 <0>        -0.0383
     29 C21         5.0735    3.8751   -0.9039 C.ar      1 <0>        -0.1810
     30 C22         6.0305    3.5078    0.0235 C.ar      1 <0>         0.1355
     31 N5          5.8105    2.5251    0.8760 N.ar      1 <0>        -0.5106
     32 C23         4.6733    1.8564    0.8881 C.ar      1 <0>         0.3193
     33 F4          4.4902    0.8619    1.7841 F         1 <0>        -0.1036
     34 H1         -0.9597    1.9050    0.0260 H         1 <0>         0.1296
     35 H2          1.1519    3.1676    0.0077 H         1 <0>         0.1257
     36 H3          3.3362   -0.5184   -0.0328 H         1 <0>         0.1349
     37 H4         -0.9270   -0.5547    0.0083 H         1 <0>         0.1380
     38 H5         -2.3594   -4.3489   -1.5921 H         1 <0>         0.1020
     39 H6         -2.3581   -2.8696   -2.6038 H         1 <0>         0.1017
     40 H7         -0.4555   -5.0866   -2.6672 H         1 <0>         0.0871
     41 H8         -0.4542   -3.6060   -3.6797 H         1 <0>         0.0868
     42 H9          2.4306   -4.5072   -3.4043 H         1 <0>         0.4100
     43 H10         3.7646   -3.9313   -2.5609 H         1 <0>         0.4257
     44 H11        -0.9251   -2.8307    1.4898 H         1 <0>         0.1490
     45 H12        -0.9476   -3.7039    3.7911 H         1 <0>         0.1412
     46 H13         3.3244   -3.6024    3.8634 H         1 <0>         0.1359
     47 H14         3.3385   -2.7382    1.5586 H         1 <0>         0.1434
     48 H15         3.1007    3.4662   -1.6510 H         1 <0>         0.1464
     49 H16         5.2664    4.6808   -1.5967 H         1 <0>         0.1473
     50 H17         6.9736    4.0334    0.0505 H         1 <0>         0.1694
@<TRIPOS>BOND
     1    1    6 ar
     2    1    2 ar
     3    1   34 1
     4    2    3 ar
     5    2   35 1
     6    3    4 ar
     7    3   27 1
     8    4    5 ar
     9    4   36 1
    10    5    6 ar
    11    5    7 1
    12    6   37 1
    13    7   14 1
    14    7    8 1
    15    7   16 1
    16    8   12 1
    17    8    9 2
    18    9   10 1
    19   10   11 1
    20   10   38 1
    21   10   39 1
    22   11   12 1
    23   11   40 1
    24   11   41 1
    25   12   13 1
    26   13   14 2
    27   13   15 1
    28   15   42 1
    29   15   43 1
    30   16   21 ar
    31   16   17 ar
    32   17   18 ar
    33   17   44 1
    34   18   19 ar
    35   18   45 1
    36   19   20 ar
    37   19   22 1
    38   20   21 ar
    39   20   46 1
    40   21   47 1
    41   22   23 1
    42   23   24 1
    43   23   25 1
    44   23   26 1
    45   27   32 ar
    46   27   28 ar
    47   28   29 ar
    48   28   48 1
    49   29   30 ar
    50   29   49 1
    51   30   31 ar
    52   30   50 1
    53   31   32 ar
    54   32   33 1
@<TRIPOS>MOLECULE
CHEMBL566112__3
   51    55     0     0     0
SMALL
USER_CHARGES

@<TRIPOS>ATOM
      1 C1         -0.0167    1.3788    0.0096 C.ar      1 <0>        -0.1018
      2 C2          1.1677    2.0877    0.0021 C.ar      1 <0>        -0.0789
      3 C3          2.3836    1.4075   -0.0131 C.ar      1 <0>        -0.0321
      4 C4          2.3965    0.0139   -0.0207 C.ar      1 <0>        -0.0494
      5 C5          1.2065   -0.6846   -0.0130 C.ar      1 <0>        -0.0937
      6 C6          0.0021   -0.0041    0.0020 C.ar      1 <0>        -0.1150
      7 C7          1.2188   -2.1915   -0.0217 C.3       1 <0>         0.2472
      8 C8          0.0341   -2.7300   -0.8093 C.cat     1 <0>         0.4775
      9 N1         -1.2522   -2.7288   -0.8091 N.pl3     1 <0>        -0.5679
     10 C9         -1.7668   -3.5043   -1.9437 C.3       1 <0>         0.0568
     11 C10        -0.4970   -3.9974   -2.6632 C.3       1 <0>         0.0786
     12 N2          0.5946   -3.4374   -1.8429 N.pl3     1 <0>        -0.5542
     13 C11         1.9671   -3.3848   -1.7643 C.2       1 <0>         0.6260
     14 N3          2.3902   -2.6931   -0.7543 N.2       1 <0>        -0.5276
     15 N4          2.8028   -4.0016   -2.6649 N.pl3     1 <0>        -0.8048
     16 C12         1.2077   -2.7267    1.3870 C.ar      1 <0>        -0.1179
     17 C13         0.0050   -3.0006    2.0118 C.ar      1 <0>        -0.0824
     18 C14        -0.0079   -3.4908    3.3033 C.ar      1 <0>        -0.1135
     19 C15         1.1872   -3.7087    3.9732 C.ar      1 <0>         0.1349
     20 C16         2.3927   -3.4336    3.3439 C.ar      1 <0>        -0.1809
     21 C17         2.4003   -2.9484    2.0505 C.ar      1 <0>        -0.0219
     22 O1          1.1772   -4.1905    5.2439 O.3       1 <0>        -0.3073
     23 C18         2.4451   -4.3904    5.8720 C.3       1 <0>         0.6047
     24 F1          3.1304   -3.1725    5.9371 F         1 <0>        -0.1591
     25 F2          2.2516   -4.8864    7.1657 F         1 <0>        -0.1221
     26 F3          3.1946   -5.3080    5.1280 F         1 <0>        -0.1615
     27 C19         3.6599    2.1640   -0.0217 C.ar      1 <0>        -0.1360
     28 C20         3.8652    3.1994   -0.9362 C.ar      1 <0>        -0.0320
     29 C21         5.0735    3.8751   -0.9039 C.ar      1 <0>        -0.1780
     30 C22         6.0305    3.5078    0.0235 C.ar      1 <0>         0.1482
     31 N5          5.8105    2.5251    0.8760 N.ar      1 <0>        -0.5076
     32 C23         4.6733    1.8564    0.8881 C.ar      1 <0>         0.3246
     33 F4          4.4902    0.8619    1.7841 F         1 <0>        -0.1056
     34 H1         -0.9597    1.9050    0.0260 H         1 <0>         0.1401
     35 H2          1.1519    3.1676    0.0077 H         1 <0>         0.1383
     36 H3          3.3362   -0.5184   -0.0328 H         1 <0>         0.1434
     37 H4         -0.9270   -0.5547    0.0083 H         1 <0>         0.1059
     38 H5         -2.3594   -4.3489   -1.5921 H         1 <0>         0.1440
     39 H6         -2.3581   -2.8696   -2.6038 H         1 <0>         0.1438
     40 H7         -0.4555   -5.0866   -2.6672 H         1 <0>         0.1332
     41 H8         -0.4542   -3.6060   -3.6797 H         1 <0>         0.1330
     42 H9          2.4306   -4.5072   -3.4043 H         1 <0>         0.4217
     43 H10         3.7646   -3.9313   -2.5609 H         1 <0>         0.4419
     44 H11        -0.9251   -2.8307    1.4898 H         1 <0>         0.1166
     45 H12        -0.9476   -3.7039    3.7911 H         1 <0>         0.1519
     46 H13         3.3244   -3.6024    3.8634 H         1 <0>         0.1478
     47 H14         3.3385   -2.7382    1.5586 H         1 <0>         0.1524
     48 H15         3.1007    3.4662   -1.6510 H         1 <0>         0.1484
     49 H16         5.2664    4.6808   -1.5967 H         1 <0>         0.1525
     50 H17         6.9736    4.0334    0.0505 H         1 <0>         0.1748
     51 H18        -1.8047   -2.2788   -0.1509 H         1 <0>         0.4629
@<TRIPOS>BOND
     1    1    6 ar
     2    1    2 ar
     3    1   34 1
     4    2    3 ar
     5    2   35 1
     6    3    4 ar
     7    3   27 1
     8    4    5 ar
     9    4   36 1
    10    5    6 ar
    11    5    7 1
    12    6   37 1
    13    7   14 1
    14    7    8 1
    15    7   16 1
    16    8   12 1
    17    8    9 2
    18    9   10 1
    19    9   51 1
    20   10   11 1
    21   10   38 1
    22   10   39 1
    23   11   12 1
    24   11   40 1
    25   11   41 1
    26   12   13 1
    27   13   14 2
    28   13   15 1
    29   15   42 1
    30   15   43 1
    31   16   21 ar
    32   16   17 ar
    33   17   18 ar
    34   17   44 1
    35   18   19 ar
    36   18   45 1
    37   19   20 ar
    38   19   22 1
    39   20   21 ar
    40   20   46 1
    41   21   47 1
    42   22   23 1
    43   23   24 1
    44   23   25 1
    45   23   26 1
    46   27   32 ar
    47   27   28 ar
    48   28   29 ar
    49   28   48 1
    50   29   30 ar
    51   29   49 1
    52   30   31 ar
    53   30   50 1
    54   31   32 ar
    55   32   33 1
@<TRIPOS>MOLECULE
CHEMBL609987
   74    77     0     0     0
SMALL
USER_CHARGES

@<TRIPOS>ATOM
      1 C1         -3.5073   -7.5264   -3.2375 C.3       1 <0>        -0.1841
      2 C2         -2.0616   -7.1305   -3.0817 C.2       1 <0>         0.5139
      3 O1         -1.6395   -6.7908   -1.9966 O.2       1 <0>        -0.5322
      4 N1         -1.2378   -7.1538   -4.1481 N.am      1 <0>        -0.7317
      5 C3          0.1676   -6.7689   -3.9965 C.3       1 <0>         0.1330
      6 H1          0.6723   -6.8499   -4.9592 H         1 <0>         0.1053
      7 C4          0.8445   -7.6972   -2.9861 C.3       1 <0>        -0.0991
      8 C5          0.8724   -9.1009   -3.5337 C.ar      1 <0>        -0.0277
      9 C6         -0.1786   -9.9620   -3.2803 C.ar      1 <0>        -0.1579
     10 C7         -0.1538  -11.2522   -3.7826 C.ar      1 <0>         0.1385
     11 C8          0.9238  -11.6792   -4.5392 C.ar      1 <0>        -0.1926
     12 C9          1.9756  -10.8158   -4.7927 C.ar      1 <0>         0.1397
     13 C10         1.9463   -9.5244   -4.2937 C.ar      1 <0>        -0.1647
     14 F1          3.0280  -11.2313   -5.5309 F         1 <0>        -0.1257
     15 F2         -1.1809  -12.0939   -3.5340 F         1 <0>        -0.1261
     16 C11         0.2500   -5.3250   -3.4974 C.3       1 <0>         0.0676
     17 H2         -0.2548   -5.2440   -2.5347 H         1 <0>         0.1460
     18 C12        -0.4270   -4.3967   -4.5078 C.3       1 <0>        -0.0580
     19 N2         -0.3479   -3.0103   -4.0286 N.4       1 <0>        -0.4963
     20 C13        -1.0761   -2.1306   -4.9525 C.3       1 <0>         0.1210
     21 C14        -0.4641   -2.2423   -6.3506 C.3       1 <0>        -0.1303
     22 C15         1.0611   -2.1084   -6.2609 C.3       1 <0>        -0.0572
     23 C16         1.3793   -0.8700   -5.4587 C.2       1 <0>         0.0542
     24 C17         0.4446   -0.2166   -4.6382 C.2       1 <0>        -0.2830
     25 C18         1.0529    0.8444   -4.0767 C.2       1 <0>         0.0995
     26 N3          2.3297    0.8664   -4.5206 N.pl3     1 <0>        -0.4646
     27 H3          3.0052    1.5204   -4.2821 H         1 <0>         0.4513
     28 N4          2.5061   -0.2232   -5.3870 N.2       1 <0>        -0.2563
     29 C19        -0.9797   -0.6812   -4.4597 C.3       1 <0>        -0.0407
     30 C20        -2.5235   -2.5469   -5.0052 C.ar      1 <0>        -0.1229
     31 C21        -3.1003   -3.1810   -3.9205 C.ar      1 <0>        -0.1362
     32 C22        -4.4278   -3.5628   -3.9688 C.ar      1 <0>        -0.0958
     33 C23        -5.1789   -3.3104   -5.1018 C.ar      1 <0>        -0.0978
     34 C24        -4.6025   -2.6757   -6.1858 C.ar      1 <0>        -0.0458
     35 C25        -3.2758   -2.2899   -6.1359 C.ar      1 <0>        -0.0863
     36 C26        -5.4211   -2.4009   -7.4209 C.3       1 <0>        -0.0342
     37 C27        -6.8452   -2.9210   -7.2150 C.3       1 <0>        -0.1509
     38 C28        -5.4612   -0.8938   -7.6813 C.3       1 <0>        -0.1428
     39 C29        -4.7880   -3.1091   -8.6204 C.3       1 <0>        -0.1409
     40 O2          1.6208   -4.9496   -3.3496 O.3       1 <0>        -0.5428
     41 H4         -4.0120   -7.4454   -2.2748 H         1 <0>         0.0995
     42 H5         -3.9896   -6.8650   -3.9574 H         1 <0>         0.0911
     43 H6         -3.5660   -8.5551   -3.5931 H         1 <0>         0.0949
     44 H7         -1.5754   -7.4255   -5.0159 H         1 <0>         0.4115
     45 H8          1.8643   -7.3569   -2.8066 H         1 <0>         0.1012
     46 H9          0.2868   -7.6835   -2.0497 H         1 <0>         0.1085
     47 H10        -1.0193   -9.6286   -2.6901 H         1 <0>         0.1362
     48 H11         0.9441  -12.6854   -4.9310 H         1 <0>         0.1520
     49 H12         2.7648   -8.8492   -4.4951 H         1 <0>         0.1431
     50 H13         0.0778   -4.4777   -5.4705 H         1 <0>         0.1372
     51 H14        -1.4726   -4.6831   -4.6206 H         1 <0>         0.1477
     52 H15        -0.7600   -2.9481   -3.1097 H         1 <0>         0.4247
     53 H16        -0.7183   -3.2109   -6.7812 H         1 <0>         0.1023
     54 H17        -0.8610   -1.4494   -6.9845 H         1 <0>         0.1179
     55 H18         1.4787   -2.9849   -5.7654 H         1 <0>         0.0812
     56 H19         1.4817   -2.0160   -7.2622 H         1 <0>         0.1157
     57 H20         0.6027    1.5504   -3.3946 H         1 <0>         0.1869
     58 H21        -1.6487   -0.0490   -5.0435 H         1 <0>         0.1166
     59 H22        -1.2532   -0.6323   -3.4057 H         1 <0>         0.0948
     60 H23        -2.5136   -3.3782   -3.0355 H         1 <0>         0.1137
     61 H24        -4.8782   -4.0588   -3.1217 H         1 <0>         0.1347
     62 H25        -6.2160   -3.6094   -5.1398 H         1 <0>         0.1391
     63 H26        -2.8264   -1.7906   -6.9815 H         1 <0>         0.1341
     64 H27        -7.2962   -2.4165   -6.3605 H         1 <0>         0.0615
     65 H28        -7.4373   -2.7222   -8.1083 H         1 <0>         0.0666
     66 H29        -6.8167   -3.9947   -7.0295 H         1 <0>         0.0609
     67 H30        -4.4466   -0.5233   -7.8280 H         1 <0>         0.0563
     68 H31        -6.0533   -0.6950   -8.5747 H         1 <0>         0.0668
     69 H32        -5.9122   -0.3893   -6.8268 H         1 <0>         0.0594
     70 H33        -4.7595   -4.1828   -8.4348 H         1 <0>         0.0581
     71 H34        -5.3801   -2.9103   -9.5137 H         1 <0>         0.0667
     72 H35        -3.7735   -2.7386   -8.7671 H         1 <0>         0.0559
     73 H36         2.1324   -4.9979   -4.1688 H         1 <0>         0.3858
     74 H37         0.6188   -2.7246   -3.9837 H         1 <0>         0.4324
@<TRIPOS>BOND
     1    1    2 1
     2    1   41 1
     3    1   42 1
     4    1   43 1
     5    2    3 2
     6    2    4 am
     7    4    5 1
     8    4   44 1
     9    5    6 1
    10    5    7 1
    11    5   16 1
    12    7    8 1
    13    7   45 1
    14    7   46 1
    15    8   13 ar
    16    8    9 ar
    17    9   10 ar
    18    9   47 1
    19   10   11 ar
    20   10   15 1
    21   11   12 ar
    22   11   48 1
    23   12   13 ar
    24   12   14 1
    25   13   49 1
    26   16   17 1
    27   16   18 1
    28   16   40 1
    29   18   19 1
    30   18   50 1
    31   18   51 1
    32   19   20 1
    33   19   52 1
    34   19   74 1
    35   20   29 1
    36   20   21 1
    37   20   30 1
    38   21   22 1
    39   21   53 1
    40   21   54 1
    41   22   23 1
    42   22   55 1
    43   22   56 1
    44   23   28 2
    45   23   24 1
    46   24   25 2
    47   24   29 1
    48   25   26 1
    49   25   57 1
    50   26   27 1
    51   26   28 1
    52   29   58 1
    53   29   59 1
    54   30   35 ar
    55   30   31 ar
    56   31   32 ar
    57   31   60 1
    58   32   33 ar
    59   32   61 1
    60   33   34 ar
    61   33   62 1
    62   34   35 ar
    63   34   36 1
    64   35   63 1
    65   36   37 1
    66   36   38 1
    67   36   39 1
    68   37   64 1
    69   37   65 1
    70   37   66 1
    71   38   67 1
    72   38   68 1
    73   38   69 1
    74   39   70 1
    75   39   71 1
    76   39   72 1
    77   40   73 1
@<TRIPOS>MOLECULE
CHEMBL609987__1
   74    77     0     0     0
SMALL
USER_CHARGES

@<TRIPOS>ATOM
      1 C1         -3.5005   -7.5276   -3.2294 C.3       1 <0>        -0.1842
      2 C2         -2.0556   -7.1290   -3.0733 C.2       1 <0>         0.5139
      3 O1         -1.6346   -6.7869   -1.9886 O.2       1 <0>        -0.5314
      4 N1         -1.2310   -7.1529   -4.1392 N.am      1 <0>        -0.7321
      5 C3          0.1736   -6.7654   -3.9875 C.3       1 <0>         0.1335
      6 H1          0.6791   -6.8472   -4.9497 H         1 <0>         0.1046
      7 C4          0.8514   -7.6909   -2.9751 C.3       1 <0>        -0.0992
      8 C5          0.8819   -9.0955   -3.5203 C.ar      1 <0>        -0.0280
      9 C6         -0.1678   -9.9578   -3.2661 C.ar      1 <0>        -0.1578
     10 C7         -0.1407  -11.2488   -3.7662 C.ar      1 <0>         0.1389
     11 C8          0.9381  -11.6754   -4.5214 C.ar      1 <0>        -0.1924
     12 C9          1.9887  -10.8107   -4.7757 C.ar      1 <0>         0.1396
     13 C10         1.9569   -9.5186   -4.2789 C.ar      1 <0>        -0.1651
     14 F1          3.0422  -11.2257   -5.5127 F         1 <0>        -0.1257
     15 F2         -1.1665  -12.0918   -3.5169 F         1 <0>        -0.1258
     16 C11         0.2534   -5.3205   -3.4907 C.3       1 <0>         0.0671
     17 H2         -0.2521   -5.2387   -2.5284 H         1 <0>         0.1470
     18 C12        -0.4244   -4.3950   -4.5031 C.3       1 <0>        -0.0580
     19 N2         -0.3479   -3.0077   -4.0261 N.4       1 <0>        -0.4967
     20 C13        -1.0761   -2.1306   -4.9525 C.3       1 <0>         0.1180
     21 C14        -0.4604   -2.2409   -6.3500 C.3       1 <0>        -0.1275
     22 C15         1.0604   -2.0673   -6.2547 C.3       1 <0>        -0.0787
     23 C16         1.3477   -0.8250   -5.4490 C.2       1 <0>         0.0688
     24 C17         0.4384   -0.2062   -4.6534 C.2       1 <0>        -0.2652
     25 C18         1.0555    0.9006   -4.0750 C.2       1 <0>         0.0721
     26 N3          2.2928    0.9474   -4.5049 N.2       1 <0>        -0.2659
     27 H3          3.3229   -0.3473   -5.8374 H         1 <0>         0.4466
     28 N4          2.4977   -0.1349   -5.3738 N.pl3     1 <0>        -0.4515
     29 C19        -0.9811   -0.6799   -4.4640 C.3       1 <0>        -0.0433
     30 C20        -2.5230   -2.5483   -5.0071 C.ar      1 <0>        -0.1231
     31 C21        -3.1003   -3.1838   -3.9234 C.ar      1 <0>        -0.1358
     32 C22        -4.4273   -3.5669   -3.9734 C.ar      1 <0>        -0.0952
     33 C23        -5.1776   -3.3143   -5.1069 C.ar      1 <0>        -0.0972
     34 C24        -4.6007   -2.6782   -6.1899 C.ar      1 <0>        -0.0454
     35 C25        -3.2744   -2.2911   -6.1382 C.ar      1 <0>        -0.0866
     36 C26        -5.4183   -2.4033   -7.4256 C.3       1 <0>        -0.0343
     37 C27        -6.8421   -2.9249   -7.2215 C.3       1 <0>        -0.1511
     38 C28        -5.4596   -0.8960   -7.6849 C.3       1 <0>        -0.1429
     39 C29        -4.7833   -3.1099   -8.6249 C.3       1 <0>        -0.1407
     40 O2          1.6235   -4.9426   -3.3427 O.3       1 <0>        -0.5422
     41 H4         -4.0059   -7.4458   -2.2671 H         1 <0>         0.0999
     42 H5         -3.9834   -6.8682   -3.9506 H         1 <0>         0.0911
     43 H6         -3.5573   -8.5569   -3.5833 H         1 <0>         0.0951
     44 H7         -1.5677   -7.4265   -5.0068 H         1 <0>         0.4115
     45 H8          1.8706   -7.3487   -2.7955 H         1 <0>         0.1010
     46 H9          0.2931   -7.6766   -2.0390 H         1 <0>         0.1088
     47 H10        -1.0094   -9.6248   -2.6769 H         1 <0>         0.1363
     48 H11         0.9603  -12.6822   -4.9116 H         1 <0>         0.1523
     49 H12         2.7745   -8.8423   -4.4810 H         1 <0>         0.1427
     50 H13         0.0810   -4.4768   -5.4654 H         1 <0>         0.1360
     51 H14        -1.4696   -4.6833   -4.6160 H         1 <0>         0.1486
     52 H15        -0.7613   -2.9445   -3.1079 H         1 <0>         0.4267
     53 H16        -0.6885   -3.2200   -6.7711 H         1 <0>         0.1040
     54 H17        -0.8752   -1.4639   -6.9921 H         1 <0>         0.1202
     55 H18         1.4987   -2.9346   -5.7610 H         1 <0>         0.0840
     56 H19         1.4813   -1.9625   -7.2547 H         1 <0>         0.1155
     57 H20         0.5949    1.5982   -3.3912 H         1 <0>         0.1926
     58 H21        -1.6580   -0.0523   -5.0436 H         1 <0>         0.1186
     59 H22        -1.2470   -0.6300   -3.4081 H         1 <0>         0.0982
     60 H23        -2.5143   -3.3811   -3.0380 H         1 <0>         0.1140
     61 H24        -4.8781   -4.0640   -3.1271 H         1 <0>         0.1352
     62 H25        -6.2143   -3.6144   -5.1462 H         1 <0>         0.1395
     63 H26        -2.8246   -1.7907   -6.9830 H         1 <0>         0.1336
     64 H27        -7.2945   -2.4215   -6.3671 H         1 <0>         0.0619
     65 H28        -7.4335   -2.7261   -8.1153 H         1 <0>         0.0667
     66 H29        -6.8127   -3.9988   -7.0368 H         1 <0>         0.0609
     67 H30        -4.4453   -0.5244   -7.8302 H         1 <0>         0.0561
     68 H31        -6.0510   -0.6972   -8.5786 H         1 <0>         0.0669
     69 H32        -5.9120   -0.3926   -6.8304 H         1 <0>         0.0598
     70 H33        -4.7539   -4.1837   -8.4402 H         1 <0>         0.0580
     71 H34        -5.3747   -2.9110   -9.5187 H         1 <0>         0.0669
     72 H35        -3.7690   -2.7383   -8.7703 H         1 <0>         0.0553
     73 H36         2.1357   -4.9915   -4.1615 H         1 <0>         0.3840
     74 H37         0.6183   -2.7206   -3.9804 H         1 <0>         0.4308
@<TRIPOS>BOND
     1    1    2 1
     2    1   41 1
     3    1   42 1
     4    1   43 1
     5    2    3 2
     6    2    4 am
     7    4    5 1
     8    4   44 1
     9    5    6 1
    10    5    7 1
    11    5   16 1
    12    7    8 1
    13    7   45 1
    14    7   46 1
    15    8   13 ar
    16    8    9 ar
    17    9   10 ar
    18    9   47 1
    19   10   11 ar
    20   10   15 1
    21   11   12 ar
    22   11   48 1
    23   12   13 ar
    24   12   14 1
    25   13   49 1
    26   16   17 1
    27   16   18 1
    28   16   40 1
    29   18   19 1
    30   18   50 1
    31   18   51 1
    32   19   20 1
    33   19   52 1
    34   19   74 1
    35   20   29 1
    36   20   21 1
    37   20   30 1
    38   21   22 1
    39   21   53 1
    40   21   54 1
    41   22   55 1
    42   22   56 1
    43   22   23 1
    44   23   24 2
    45   23   28 1
    46   24   25 1
    47   24   29 1
    48   25   26 2
    49   25   57 1
    50   26   28 1
    51   27   28 1
    52   29   58 1
    53   29   59 1
    54   30   35 ar
    55   30   31 ar
    56   31   32 ar
    57   31   60 1
    58   32   33 ar
    59   32   61 1
    60   33   34 ar
    61   33   62 1
    62   34   35 ar
    63   34   36 1
    64   35   63 1
    65   36   37 1
    66   36   38 1
    67   36   39 1
    68   37   64 1
    69   37   65 1
    70   37   66 1
    71   38   67 1
    72   38   68 1
    73   38   69 1
    74   39   70 1
    75   39   71 1
    76   39   72 1
    77   40   73 1
@<TRIPOS>MOLECULE
CHEMBL609987__2
   74    77     0     0     0
SMALL
USER_CHARGES

@<TRIPOS>ATOM
      1 C1          3.5133   -4.8899   -7.5682 C.3       1 <0>        -0.1844
      2 C2          3.4900   -4.4093   -6.1401 C.2       1 <0>         0.5110
      3 O1          3.3248   -5.2011   -5.2364 O.2       1 <0>        -0.5299
      4 N1          3.6528   -3.0995   -5.8671 N.am      1 <0>        -0.7331
      5 C3          3.6302   -2.6323   -4.4788 C.3       1 <0>         0.1331
      6 H1          3.7771   -1.5525   -4.4564 H         1 <0>         0.1058
      7 C4          4.7506   -3.3158   -3.6923 C.3       1 <0>        -0.0992
      8 C5          6.0858   -2.8796   -4.2381 C.ar      1 <0>        -0.0278
      9 C6          6.6785   -3.5914   -5.2638 C.ar      1 <0>        -0.1580
     10 C7          7.9056   -3.1918   -5.7658 C.ar      1 <0>         0.1387
     11 C8          8.5384   -2.0786   -5.2402 C.ar      1 <0>        -0.1925
     12 C9          7.9437   -1.3661   -4.2133 C.ar      1 <0>         0.1395
     13 C10         6.7141   -1.7646   -3.7164 C.ar      1 <0>        -0.1647
     14 F1          8.5602   -0.2793   -3.6993 F         1 <0>        -0.1258
     15 F2          8.4851   -3.8884   -6.7679 F         1 <0>        -0.1260
     16 C11         2.2801   -2.9766   -3.8467 C.3       1 <0>         0.0676
     17 H2          2.1332   -4.0564   -3.8691 H         1 <0>         0.1457
     18 C12         1.1597   -2.2931   -4.6331 C.3       1 <0>        -0.0628
     19 N2         -0.1366   -2.6237   -4.0263 N.4       1 <0>        -0.4965
     20 C13        -1.2174   -2.0371   -4.8300 C.3       1 <0>         0.1212
     21 C14        -1.0734   -2.4899   -6.2846 C.3       1 <0>        -0.1293
     22 C15        -0.8638   -4.0084   -6.3362 C.3       1 <0>        -0.0597
     23 C16        -1.9429   -4.6618   -5.5072 C.2       1 <0>         0.0553
     24 C17        -2.7253   -3.9690   -4.5683 C.2       1 <0>        -0.2846
     25 C18        -3.5851   -4.8443   -4.0155 C.2       1 <0>         0.0998
     26 N3         -3.3583   -6.0521   -4.5791 N.pl3     1 <0>        -0.4645
     27 H3         -3.8302   -6.8745   -4.3743 H         1 <0>         0.4513
     28 N4         -2.3207   -5.9070   -5.5123 N.2       1 <0>        -0.2550
     29 C19        -2.5720   -2.4966   -4.2764 C.3       1 <0>        -0.0409
     30 C20        -1.1324   -0.5339   -4.7633 C.ar      1 <0>        -0.1175
     31 C21        -0.3374    0.0718   -3.8081 C.ar      1 <0>        -0.1464
     32 C22        -0.2595    1.4504   -3.7469 C.ar      1 <0>        -0.0934
     33 C23        -0.9763    2.2237   -4.6412 C.ar      1 <0>        -0.1000
     34 C24        -1.7704    1.6181   -5.5967 C.ar      1 <0>        -0.0427
     35 C25        -1.8450    0.2390   -5.6606 C.ar      1 <0>        -0.0863
     36 C26        -2.5521    2.4609   -6.5712 C.3       1 <0>        -0.0349
     37 C27        -2.2916    3.9417   -6.2881 C.3       1 <0>        -0.1511
     38 C28        -2.1127    2.1297   -7.9988 C.3       1 <0>        -0.1415
     39 C29        -4.0456    2.1670   -6.4161 C.3       1 <0>        -0.1424
     40 O2          2.2580   -2.5209   -2.4925 O.3       1 <0>        -0.5426
     41 H4          3.3664   -5.9697   -7.5906 H         1 <0>         0.1002
     42 H5          2.7151   -4.4030   -8.1284 H         1 <0>         0.0917
     43 H6          4.4751   -4.6446   -8.0185 H         1 <0>         0.0957
     44 H7          3.7849   -2.4663   -6.5898 H         1 <0>         0.4119
     45 H8          4.6790   -3.0368   -2.6411 H         1 <0>         0.1013
     46 H9          4.6545   -4.3973   -3.7886 H         1 <0>         0.1084
     47 H10         6.1845   -4.4600   -5.6738 H         1 <0>         0.1364
     48 H11         9.4956   -1.7663   -5.6309 H         1 <0>         0.1521
     49 H12         6.2478   -1.2063   -2.9181 H         1 <0>         0.1430
     50 H13         1.3065   -1.2133   -4.6107 H         1 <0>         0.1443
     51 H14         1.1765   -2.6407   -5.6661 H         1 <0>         0.1440
     52 H15        -0.2473   -3.6261   -3.9944 H         1 <0>         0.4307
     53 H16        -1.9766   -2.2297   -6.8364 H         1 <0>         0.1181
     54 H17        -0.2167   -1.9902   -6.7367 H         1 <0>         0.1018
     55 H18        -0.9323   -4.3542   -7.3676 H         1 <0>         0.1152
     56 H19         0.1155   -4.2585   -5.9282 H         1 <0>         0.0818
     57 H20        -4.3229   -4.6221   -3.2587 H         1 <0>         0.1872
     58 H21        -2.6051   -2.3298   -3.1998 H         1 <0>         0.0956
     59 H22        -3.3749   -1.9403   -4.7602 H         1 <0>         0.1166
     60 H23         0.2225   -0.5322   -3.1095 H         1 <0>         0.1135
     61 H24         0.3610    1.9236   -3.0003 H         1 <0>         0.1353
     62 H25        -0.9160    3.3009   -4.5930 H         1 <0>         0.1393
     63 H26        -2.4625   -0.2343   -6.4097 H         1 <0>         0.1334
     64 H27        -1.2276    4.1511   -6.3986 H         1 <0>         0.0611
     65 H28        -2.8570    4.5514   -6.9929 H         1 <0>         0.0668
     66 H29        -2.6046    4.1777   -5.2710 H         1 <0>         0.0615
     67 H30        -2.2983    1.0747   -8.2006 H         1 <0>         0.0563
     68 H31        -2.6781    2.7393   -8.7037 H         1 <0>         0.0669
     69 H32        -1.0487    2.3390   -8.1093 H         1 <0>         0.0585
     70 H33        -4.3586    2.4030   -5.3991 H         1 <0>         0.0593
     71 H34        -4.6109    2.7766   -7.1210 H         1 <0>         0.0669
     72 H35        -4.2311    1.1120   -6.6178 H         1 <0>         0.0564
     73 H36         2.3830   -1.5668   -2.3965 H         1 <0>         0.3854
     74 H37        -0.1741   -2.2512   -3.0893 H         1 <0>         0.4279
@<TRIPOS>BOND
     1    1    2 1
     2    1   41 1
     3    1   42 1
     4    1   43 1
     5    2    3 2
     6    2    4 am
     7    4    5 1
     8    4   44 1
     9    5    6 1
    10    5    7 1
    11    5   16 1
    12    7    8 1
    13    7   45 1
    14    7   46 1
    15    8   13 ar
    16    8    9 ar
    17    9   10 ar
    18    9   47 1
    19   10   11 ar
    20   10   15 1
    21   11   12 ar
    22   11   48 1
    23   12   13 ar
    24   12   14 1
    25   13   49 1
    26   16   17 1
    27   16   18 1
    28   16   40 1
    29   18   19 1
    30   18   50 1
    31   18   51 1
    32   19   20 1
    33   19   52 1
    34   19   74 1
    35   20   29 1
    36   20   21 1
    37   20   30 1
    38   21   22 1
    39   21   53 1
    40   21   54 1
    41   22   23 1
    42   22   55 1
    43   22   56 1
    44   23   28 2
    45   23   24 1
    46   24   25 2
    47   24   29 1
    48   25   26 1
    49   25   57 1
    50   26   27 1
    51   26   28 1
    52   29   58 1
    53   29   59 1
    54   30   35 ar
    55   30   31 ar
    56   31   32 ar
    57   31   60 1
    58   32   33 ar
    59   32   61 1
    60   33   34 ar
    61   33   62 1
    62   34   35 ar
    63   34   36 1
    64   35   63 1
    65   36   37 1
    66   36   38 1
    67   36   39 1
    68   37   64 1
    69   37   65 1
    70   37   66 1
    71   38   67 1
    72   38   68 1
    73   38   69 1
    74   39   70 1
    75   39   71 1
    76   39   72 1
    77   40   73 1
@<TRIPOS>MOLECULE
CHEMBL609987__3
   74    77     0     0     0
SMALL
USER_CHARGES

@<TRIPOS>ATOM
      1 C1          3.1916   -4.1633   -8.5910 C.3       1 <0>        -0.1844
      2 C2          3.3664   -3.8456   -7.1283 C.2       1 <0>         0.5110
      3 O1          3.4034   -4.7428   -6.3131 O.2       1 <0>        -0.5316
      4 N1          3.4816   -2.5645   -6.7260 N.am      1 <0>        -0.7321
      5 C3          3.6515   -2.2556   -5.3041 C.3       1 <0>         0.1329
      6 H1          3.7262   -1.1761   -5.1731 H         1 <0>         0.1059
      7 C4          4.9280   -2.9217   -4.7865 C.3       1 <0>        -0.0991
      8 C5          6.1248   -2.3147   -5.4721 C.ar      1 <0>        -0.0282
      9 C6          6.5913   -2.8562   -6.6551 C.ar      1 <0>        -0.1584
     10 C7          7.6913   -2.2995   -7.2857 C.ar      1 <0>         0.1387
     11 C8          8.3234   -1.2000   -6.7312 C.ar      1 <0>        -0.1923
     12 C9          7.8550   -0.6583   -5.5466 C.ar      1 <0>         0.1400
     13 C10         6.7517   -1.2134   -4.9205 C.ar      1 <0>        -0.1645
     14 F1          8.4710    0.4149   -5.0043 F         1 <0>        -0.1255
     15 F2          8.1476   -2.8296   -8.4415 F         1 <0>        -0.1260
     16 C11         2.4476   -2.7823   -4.5204 C.3       1 <0>         0.0680
     17 H2          2.3729   -3.8619   -4.6513 H         1 <0>         0.1445
     18 C12         1.1712   -2.1162   -5.0379 C.3       1 <0>        -0.0590
     19 N2          0.0153   -2.6219   -4.2855 N.4       1 <0>        -0.4964
     20 C13        -1.2174   -2.0371   -4.8300 C.3       1 <0>         0.1179
     21 C14        -1.3901   -2.4758   -6.2866 C.3       1 <0>        -0.1272
     22 C15        -1.2210   -3.9968   -6.3868 C.3       1 <0>        -0.0805
     23 C16        -2.0973   -4.6425   -5.3429 C.2       1 <0>         0.0698
     24 C17        -2.6319   -3.9830   -4.2836 C.2       1 <0>        -0.2667
     25 C18        -3.3794   -4.8949   -3.5418 C.2       1 <0>         0.0720
     26 N3         -3.2979   -6.0627   -4.1314 N.2       1 <0>        -0.2660
     27 H3         -2.2600   -6.6294   -5.8961 H         1 <0>         0.4469
     28 N4         -2.4914   -5.9246   -5.2711 N.pl3     1 <0>        -0.4511
     29 C19        -2.4181   -2.5161   -4.0049 C.3       1 <0>        -0.0423
     30 C20        -1.1312   -0.5339   -4.7653 C.ar      1 <0>        -0.1206
     31 C21        -0.3351    0.0724   -3.8113 C.ar      1 <0>        -0.1408
     32 C22        -0.2560    1.4510   -3.7520 C.ar      1 <0>        -0.0950
     33 C23        -0.9728    2.2237   -4.6468 C.ar      1 <0>        -0.0981
     34 C24        -1.7679    1.6175   -5.6010 C.ar      1 <0>        -0.0441
     35 C25        -1.8436    0.2384   -5.6632 C.ar      1 <0>        -0.0874
     36 C26        -2.5495    2.4598   -6.5761 C.3       1 <0>        -0.0347
     37 C27        -2.2877    3.9407   -6.2950 C.3       1 <0>        -0.1513
     38 C28        -2.1113    2.1263   -8.0036 C.3       1 <0>        -0.1409
     39 C29        -4.0431    2.1673   -6.4198 C.3       1 <0>        -0.1428
     40 O2          2.6134   -2.4811   -3.1333 O.3       1 <0>        -0.5420
     41 H4          3.1169   -5.2428   -8.7220 H         1 <0>         0.0997
     42 H5          2.2822   -3.6887   -8.9597 H         1 <0>         0.0909
     43 H6          4.0493   -3.7881   -9.1494 H         1 <0>         0.0963
     44 H7          3.4519   -1.8469   -7.3780 H         1 <0>         0.4120
     45 H8          5.0082   -2.7667   -3.7106 H         1 <0>         0.1017
     46 H9          4.8915   -3.9904   -4.9978 H         1 <0>         0.1081
     47 H10         6.0980   -3.7141   -7.0876 H         1 <0>         0.1359
     48 H11         9.1815   -0.7654   -7.2221 H         1 <0>         0.1523
     49 H12         6.3835   -0.7882   -3.9985 H         1 <0>         0.1432
     50 H13         1.2459   -1.0367   -4.9070 H         1 <0>         0.1449
     51 H14         1.0447   -2.3460   -6.0959 H         1 <0>         0.1402
     52 H15        -0.0251   -3.6269   -4.3662 H         1 <0>         0.4285
     53 H16        -2.3848   -2.1972   -6.6344 H         1 <0>         0.1206
     54 H17        -0.6385   -1.9852   -6.9053 H         1 <0>         0.1031
     55 H18        -1.5213   -4.3350   -7.3786 H         1 <0>         0.1157
     56 H19        -0.1792   -4.2629   -6.2081 H         1 <0>         0.0852
     57 H20        -3.9300   -4.6775   -2.6385 H         1 <0>         0.1927
     58 H21        -2.2164   -2.3696   -2.9438 H         1 <0>         0.0984
     59 H22        -3.3075   -1.9546   -4.2910 H         1 <0>         0.1185
     60 H23         0.2248   -0.5312   -3.1123 H         1 <0>         0.1157
     61 H24         0.3653    1.9247   -3.0063 H         1 <0>         0.1358
     62 H25        -0.9116    3.3009   -4.6000 H         1 <0>         0.1395
     63 H26        -2.4620   -0.2353   -6.4112 H         1 <0>         0.1338
     64 H27        -1.2236    4.1491   -6.4064 H         1 <0>         0.0609
     65 H28        -2.8530    4.5499   -7.0003 H         1 <0>         0.0670
     66 H29        -2.5999    4.1783   -5.2781 H         1 <0>         0.0619
     67 H30        -2.2978    1.0713   -8.2039 H         1 <0>         0.0555
     68 H31        -2.6766    2.7355   -8.7089 H         1 <0>         0.0671
     69 H32        -1.0472    2.3347   -8.1150 H         1 <0>         0.0581
     70 H33        -4.3554    2.4048   -5.4028 H         1 <0>         0.0599
     71 H34        -4.6085    2.7765   -7.1250 H         1 <0>         0.0671
     72 H35        -4.2297    1.1122   -6.6200 H         1 <0>         0.0563
     73 H36         2.6870   -1.5361   -2.9422 H         1 <0>         0.3862
     74 H37         0.1083   -2.3660   -3.3139 H         1 <0>         0.4289
@<TRIPOS>BOND
     1    1    2 1
     2    1   41 1
     3    1   42 1
     4    1   43 1
     5    2    3 2
     6    2    4 am
     7    4    5 1
     8    4   44 1
     9    5    6 1
    10    5    7 1
    11    5   16 1
    12    7    8 1
    13    7   45 1
    14    7   46 1
    15    8   13 ar
    16    8    9 ar
    17    9   10 ar
    18    9   47 1
    19   10   11 ar
    20   10   15 1
    21   11   12 ar
    22   11   48 1
    23   12   13 ar
    24   12   14 1
    25   13   49 1
    26   16   17 1
    27   16   18 1
    28   16   40 1
    29   18   19 1
    30   18   50 1
    31   18   51 1
    32   19   20 1
    33   19   52 1
    34   19   74 1
    35   20   29 1
    36   20   21 1
    37   20   30 1
    38   21   22 1
    39   21   53 1
    40   21   54 1
    41   22   55 1
    42   22   56 1
    43   22   23 1
    44   23   24 2
    45   23   28 1
    46   24   25 1
    47   24   29 1
    48   25   26 2
    49   25   57 1
    50   26   28 1
    51   27   28 1
    52   29   58 1
    53   29   59 1
    54   30   35 ar
    55   30   31 ar
    56   31   32 ar
    57   31   60 1
    58   32   33 ar
    59   32   61 1
    60   33   34 ar
    61   33   62 1
    62   34   35 ar
    63   34   36 1
    64   35   63 1
    65   36   37 1
    66   36   38 1
    67   36   39 1
    68   37   64 1
    69   37   65 1
    70   37   66 1
    71   38   67 1
    72   38   68 1
    73   38   69 1
    74   39   70 1
    75   39   71 1
    76   39   72 1
    77   40   73 1
@<TRIPOS>MOLECULE
CHEMBL589614
   53    55     0     0     0
SMALL
USER_CHARGES

@<TRIPOS>ATOM
      1 C1          0.0091    1.4816   -0.1159 C.3       1 <0>         0.0610
      2 N1          0.0340    0.0173   -0.0784 N.am      1 <0>        -0.5556
      3 C2         -1.0636   -0.7604   -0.0215 C.2       1 <0>         0.5405
      4 O1         -2.2167   -0.3864    0.0072 O.2       1 <0>        -0.3960
      5 C3         -0.5757   -2.1931   -0.0008 C.3       1 <0>         0.1819
      6 N2          0.8910   -2.0811   -0.0529 N.pl3     1 <0>        -0.6595
      7 C4          1.1799   -0.7397   -0.1027 C.cat     1 <0>         0.7284
      8 N3          2.3842   -0.2488   -0.1621 N.pl3     1 <0>        -0.7356
      9 C5         -1.0896   -2.9418   -1.2035 C.ar      1 <0>        -0.0985
     10 C6         -0.2027   -3.4147   -2.1536 C.ar      1 <0>        -0.1206
     11 C7         -0.6702   -4.1023   -3.2582 C.ar      1 <0>        -0.0881
     12 C8         -2.0252   -4.3192   -3.4162 C.ar      1 <0>        -0.0987
     13 C9         -2.9182   -3.8457   -2.4641 C.ar      1 <0>         0.1656
     14 C10        -2.4450   -3.1598   -1.3529 C.ar      1 <0>        -0.1161
     15 N4         -4.2914   -4.0632   -2.6214 N.am      1 <0>        -0.6769
     16 C11        -4.7328   -5.2081   -3.1790 C.2       1 <0>         0.5164
     17 O2         -3.9399   -6.0128   -3.6204 O.2       1 <0>        -0.4895
     18 C12        -6.2116   -5.4884   -3.2540 C.3       1 <0>         0.0440
     19 O3         -6.4252   -6.7539   -3.8826 O.3       1 <0>        -0.3668
     20 C13        -7.8018   -7.1174   -4.0042 C.3       1 <0>         0.0287
     21 C14        -1.0132   -2.8882    1.2901 C.3       1 <0>        -0.0809
     22 C15        -0.5309   -2.0774    2.4946 C.3       1 <0>        -0.1223
     23 C16        -0.9683   -2.7724    3.7855 C.3       1 <0>        -0.1184
     24 C17        -0.3619   -4.1761    3.8397 C.3       1 <0>        -0.1238
     25 C18        -0.8442   -4.9869    2.6352 C.3       1 <0>        -0.1212
     26 C19        -0.4067   -4.2918    1.3443 C.3       1 <0>        -0.1118
     27 H1          1.0297    1.8612   -0.1648 H         1 <0>         0.0982
     28 H2         -0.5444    1.8132   -0.9945 H         1 <0>         0.1091
     29 H3         -0.4766    1.8599    0.7836 H         1 <0>         0.1095
     30 H4          2.5154    0.7119   -0.1920 H         1 <0>         0.4478
     31 H5          0.8571   -3.2461   -2.0326 H         1 <0>         0.1205
     32 H6          0.0249   -4.4701   -3.9986 H         1 <0>         0.1387
     33 H7         -2.3897   -4.8561   -4.2795 H         1 <0>         0.1503
     34 H8         -3.1366   -2.7938   -0.6085 H         1 <0>         0.1382
     35 H9         -4.9257   -3.3901   -2.3291 H         1 <0>         0.4169
     36 H10        -6.6293   -5.5076   -2.2474 H         1 <0>         0.0879
     37 H11        -6.7005   -4.7068   -3.8355 H         1 <0>         0.0878
     38 H12        -8.3238   -6.3695   -4.6012 H         1 <0>         0.0480
     39 H13        -7.8793   -8.0896   -4.4911 H         1 <0>         0.0972
     40 H14        -8.2525   -7.1704   -3.0132 H         1 <0>         0.0478
     41 H15        -2.1005   -2.9610    1.3130 H         1 <0>         0.1140
     42 H16         0.5565   -2.0045    2.4717 H         1 <0>         0.0635
     43 H17        -0.9629   -1.0774    2.4560 H         1 <0>         0.0609
     44 H18        -0.6247   -2.1948    4.6436 H         1 <0>         0.0717
     45 H19        -2.0557   -2.8453    3.8084 H         1 <0>         0.0709
     46 H20         0.7254   -4.1032    3.8168 H         1 <0>         0.0626
     47 H21        -0.6736   -4.6712    4.7594 H         1 <0>         0.0719
     48 H22        -0.4122   -5.9869    2.6739 H         1 <0>         0.0741
     49 H23        -1.9315   -5.0597    2.6581 H         1 <0>         0.0697
     50 H24        -0.7503   -4.8695    0.4862 H         1 <0>         0.0795
     51 H25         0.6806   -4.2190    1.3214 H         1 <0>         0.0619
     52 H26         1.5287   -2.8121   -0.0554 H         1 <0>         0.4631
     53 H27         3.1503   -0.8436   -0.1764 H         1 <0>         0.4519
@<TRIPOS>BOND
     1    1    2 1
     2    1   27 1
     3    1   28 1
     4    1   29 1
     5    2    7 1
     6    2    3 am
     7    3    4 2
     8    3    5 1
     9    5    6 1
    10    5    9 1
    11    5   21 1
    12    6    7 1
    13    6   52 1
    14    7    8 2
    15    8   30 1
    16    8   53 1
    17    9   14 ar
    18    9   10 ar
    19   10   11 ar
    20   10   31 1
    21   11   12 ar
    22   11   32 1
    23   12   13 ar
    24   12   33 1
    25   13   14 ar
    26   13   15 1
    27   14   34 1
    28   15   16 am
    29   15   35 1
    30   16   17 2
    31   16   18 1
    32   18   19 1
    33   18   36 1
    34   18   37 1
    35   19   20 1
    36   20   38 1
    37   20   39 1
    38   20   40 1
    39   21   26 1
    40   21   22 1
    41   21   41 1
    42   22   23 1
    43   22   42 1
    44   22   43 1
    45   23   24 1
    46   23   44 1
    47   23   45 1
    48   24   25 1
    49   24   46 1
    50   24   47 1
    51   25   26 1
    52   25   48 1
    53   25   49 1
    54   26   50 1
    55   26   51 1
@<TRIPOS>MOLECULE
CHEMBL589614__1
   53    55     0     0     0
SMALL
USER_CHARGES

@<TRIPOS>ATOM
      1 C1          0.0048    1.4807   -0.0980 C.3       1 <0>         0.0629
      2 N1          0.0295    0.0162   -0.0671 N.am      1 <0>        -0.5553
      3 C2         -1.0669   -0.7694   -0.0184 C.2       1 <0>         0.5414
      4 O1         -2.2266   -0.4161    0.0071 O.2       1 <0>        -0.3901
      5 C3         -0.5351   -2.1889   -0.0031 C.3       1 <0>         0.1707
      6 N2          0.9260   -2.0196   -0.0490 N.pl3     1 <0>        -0.6201
      7 C4          1.1709   -0.7463   -0.0896 C.cat     1 <0>         0.7289
      8 N3          2.4381   -0.2170   -0.1451 N.pl3     1 <0>        -0.7800
      9 C5         -1.0178   -2.9475   -1.2125 C.ar      1 <0>        -0.0995
     10 C6         -0.1106   -3.3882   -2.1589 C.ar      1 <0>        -0.1224
     11 C7         -0.5494   -4.0849   -3.2696 C.ar      1 <0>        -0.0859
     12 C8         -1.8960   -4.3429   -3.4373 C.ar      1 <0>        -0.0973
     13 C9         -2.8093   -3.9018   -2.4890 C.ar      1 <0>         0.1673
     14 C10        -2.3647   -3.2068   -1.3717 C.ar      1 <0>        -0.1148
     15 N4         -4.1741   -4.1612   -2.6563 N.am      1 <0>        -0.6769
     16 C11        -4.5761   -5.3166   -3.2218 C.2       1 <0>         0.5166
     17 O2         -3.7557   -6.0941   -3.6617 O.2       1 <0>        -0.4891
     18 C12        -6.0450   -5.6424   -3.3077 C.3       1 <0>         0.0440
     19 O3         -6.2151   -6.9109   -3.9434 O.3       1 <0>        -0.3668
     20 C13        -7.5790   -7.3164   -4.0755 C.3       1 <0>         0.0286
     21 C14        -0.9524   -2.9047    1.2831 C.3       1 <0>        -0.0811
     22 C15        -0.4972   -2.0862    2.4930 C.3       1 <0>        -0.1242
     23 C16        -0.9146   -2.8020    3.7792 C.3       1 <0>        -0.1180
     24 C17        -0.2647   -4.1863    3.8263 C.3       1 <0>        -0.1244
     25 C18        -0.7199   -5.0048    2.6164 C.3       1 <0>        -0.1209
     26 C19        -0.3026   -4.2890    1.3302 C.3       1 <0>        -0.1132
     27 H1          1.0256    1.8605   -0.1407 H         1 <0>         0.0997
     28 H2         -0.5448    1.8163   -0.9775 H         1 <0>         0.1079
     29 H3         -0.4848    1.8549    0.8011 H         1 <0>         0.1084
     30 H4          2.5613    0.7448   -0.1704 H         1 <0>         0.4433
     31 H5          3.2093   -0.8053   -0.1590 H         1 <0>         0.4463
     32 H6          0.9427   -3.1874   -2.0301 H         1 <0>         0.1195
     33 H7          0.1615   -4.4274   -4.0070 H         1 <0>         0.1400
     34 H8         -2.2381   -4.8869   -4.3054 H         1 <0>         0.1514
     35 H9         -3.0722   -2.8660   -0.6303 H         1 <0>         0.1391
     36 H10        -4.8308   -3.5094   -2.3651 H         1 <0>         0.4173
     37 H11        -6.4682   -5.6793   -2.3039 H         1 <0>         0.0880
     38 H12        -6.5543   -4.8736   -3.8888 H         1 <0>         0.0881
     39 H13        -8.0341   -7.3881   -3.0877 H         1 <0>         0.0479
     40 H14        -8.1201   -6.5824   -4.6725 H         1 <0>         0.0482
     41 H15        -7.6230   -8.2883   -4.5672 H         1 <0>         0.0973
     42 H16        -2.0370   -3.0115    1.3040 H         1 <0>         0.1179
     43 H17         0.5873   -1.9794    2.4721 H         1 <0>         0.0632
     44 H18        -0.9602   -1.1000    2.4594 H         1 <0>         0.0629
     45 H19        -0.5903   -2.2189    4.6411 H         1 <0>         0.0729
     46 H20        -1.9991   -2.9088    3.8000 H         1 <0>         0.0717
     47 H21         0.8198   -4.0795    3.8055 H         1 <0>         0.0630
     48 H22        -0.5621   -4.6963    4.7426 H         1 <0>         0.0729
     49 H23        -0.2570   -5.9911    2.6500 H         1 <0>         0.0750
     50 H24        -1.8045   -5.1117    2.6373 H         1 <0>         0.0705
     51 H25        -0.6269   -4.8722    0.4683 H         1 <0>         0.0810
     52 H26         0.7820   -4.1822    1.3094 H         1 <0>         0.0615
     53 H27         1.5857   -2.7307   -0.0527 H         1 <0>         0.4648
@<TRIPOS>BOND
     1    1    2 1
     2    1   27 1
     3    1   28 1
     4    1   29 1
     5    2    7 1
     6    2    3 am
     7    3    4 2
     8    3    5 1
     9    5    6 1
    10    5    9 1
    11    5   21 1
    12    6    7 2
    13    6   53 1
    14    7    8 1
    15    8   30 1
    16    8   31 1
    17    9   14 ar
    18    9   10 ar
    19   10   11 ar
    20   10   32 1
    21   11   12 ar
    22   11   33 1
    23   12   13 ar
    24   12   34 1
    25   13   14 ar
    26   13   15 1
    27   14   35 1
    28   15   16 am
    29   15   36 1
    30   16   17 2
    31   16   18 1
    32   18   19 1
    33   18   37 1
    34   18   38 1
    35   19   20 1
    36   20   39 1
    37   20   40 1
    38   20   41 1
    39   21   26 1
    40   21   22 1
    41   21   42 1
    42   22   23 1
    43   22   43 1
    44   22   44 1
    45   23   24 1
    46   23   45 1
    47   23   46 1
    48   24   25 1
    49   24   47 1
    50   24   48 1
    51   25   26 1
    52   25   49 1
    53   25   50 1
    54   26   51 1
    55   26   52 1
@<TRIPOS>MOLECULE
CHEMBL589614__2
   53    55     0     0     0
SMALL
USER_CHARGES

@<TRIPOS>ATOM
      1 C1          0.5670    1.0394   -0.3794 C.3       1 <0>         0.0608
      2 N1          0.4070   -0.4127   -0.2696 N.am      1 <0>        -0.5561
      3 C2         -0.7806   -1.0442   -0.2095 C.2       1 <0>         0.5382
      4 O1         -1.8780   -0.5292   -0.2357 O.2       1 <0>        -0.3907
      5 C3         -0.4769   -2.5234   -0.1034 C.3       1 <0>         0.1821
      6 N2          0.9932   -2.5970   -0.1144 N.pl3     1 <0>        -0.6587
      7 C4          1.4492   -1.3062   -0.2206 C.cat     1 <0>         0.7251
      8 N3          2.7066   -0.9722   -0.2657 N.pl3     1 <0>        -0.7372
      9 C5         -1.0223   -3.0817    1.1857 C.ar      1 <0>        -0.0981
     10 C6         -2.3007   -3.6079    1.2244 C.ar      1 <0>        -0.0964
     11 C7         -2.8047   -4.1215    2.4051 C.ar      1 <0>        -0.0840
     12 C8         -2.0322   -4.1104    3.5501 C.ar      1 <0>        -0.0959
     13 C9         -0.7483   -3.5828    3.5146 C.ar      1 <0>         0.1618
     14 C10        -0.2431   -3.0724    2.3257 C.ar      1 <0>        -0.1348
     15 N4          0.0366   -3.5697    4.6729 N.am      1 <0>        -0.6785
     16 C11        -0.0778   -4.5637    5.5758 C.2       1 <0>         0.5139
     17 O2         -0.7893   -5.5175    5.3408 O.2       1 <0>        -0.4846
     18 C12         0.6783   -4.4902    6.8773 C.3       1 <0>         0.0446
     19 O3          0.3949   -5.6524    7.6591 O.3       1 <0>        -0.3662
     20 C13         1.0658   -5.6822    8.9204 C.3       1 <0>         0.0286
     21 C14        -1.0587   -3.2759   -1.3018 C.3       1 <0>        -0.0850
     22 C15        -0.7243   -4.7640   -1.1809 C.3       1 <0>        -0.1146
     23 C16        -1.3061   -5.5164   -2.3793 C.3       1 <0>        -0.1216
     24 C17        -0.7034   -4.9615   -3.6715 C.3       1 <0>        -0.1239
     25 C18        -1.0378   -3.4734   -3.7924 C.3       1 <0>        -0.1188
     26 C19        -0.4560   -2.7210   -2.5940 C.3       1 <0>        -0.1207
     27 H1          1.6280    1.2864   -0.4144 H         1 <0>         0.0978
     28 H2          0.0819    1.3905   -1.2902 H         1 <0>         0.1096
     29 H3          0.1100    1.5216    0.4847 H         1 <0>         0.1091
     30 H4          2.9580   -0.0381   -0.3384 H         1 <0>         0.4475
     31 H5         -2.9068   -3.6174    0.3306 H         1 <0>         0.1377
     32 H6         -3.8035   -4.5314    2.4321 H         1 <0>         0.1432
     33 H7         -2.4265   -4.5114    4.4722 H         1 <0>         0.1458
     34 H8          0.7567   -2.6651    2.2939 H         1 <0>         0.1198
     35 H9          0.6632   -2.8452    4.8260 H         1 <0>         0.4127
     36 H10         1.7480   -4.4412    6.6738 H         1 <0>         0.0849
     37 H11         0.3716   -3.5997    7.4259 H         1 <0>         0.0880
     38 H12         0.7672   -4.8163    9.5114 H         1 <0>         0.0483
     39 H13         0.7985   -6.5950    9.4527 H         1 <0>         0.0981
     40 H14         2.1436   -5.6579    8.7593 H         1 <0>         0.0473
     41 H15        -2.1409   -3.1471   -1.3211 H         1 <0>         0.1167
     42 H16         0.3579   -4.8927   -1.1616 H         1 <0>         0.0620
     43 H17        -1.1537   -5.1593   -0.2604 H         1 <0>         0.0823
     44 H18        -1.0679   -6.5766   -2.2932 H         1 <0>         0.0742
     45 H19        -2.3883   -5.3876   -2.3986 H         1 <0>         0.0709
     46 H20         0.3788   -5.0903   -3.6522 H         1 <0>         0.0622
     47 H21        -1.1179   -5.4976   -4.5253 H         1 <0>         0.0720
     48 H22        -0.6084   -3.0781   -4.7129 H         1 <0>         0.0714
     49 H23        -2.1200   -3.3447   -3.8117 H         1 <0>         0.0716
     50 H24        -0.6943   -1.6608   -2.6801 H         1 <0>         0.0600
     51 H25         0.6262   -2.8497   -2.5747 H         1 <0>         0.0635
     52 H26         1.5339   -3.4005   -0.0610 H         1 <0>         0.4628
     53 H27         3.3922   -1.6573   -0.2266 H         1 <0>         0.4514
@<TRIPOS>BOND
     1    1    2 1
     2    1   27 1
     3    1   28 1
     4    1   29 1
     5    2    7 1
     6    2    3 am
     7    3    4 2
     8    3    5 1
     9    5    6 1
    10    5    9 1
    11    5   21 1
    12    6    7 1
    13    6   52 1
    14    7    8 2
    15    8   30 1
    16    8   53 1
    17    9   14 ar
    18    9   10 ar
    19   10   11 ar
    20   10   31 1
    21   11   12 ar
    22   11   32 1
    23   12   13 ar
    24   12   33 1
    25   13   14 ar
    26   13   15 1
    27   14   34 1
    28   15   16 am
    29   15   35 1
    30   16   17 2
    31   16   18 1
    32   18   19 1
    33   18   36 1
    34   18   37 1
    35   19   20 1
    36   20   38 1
    37   20   39 1
    38   20   40 1
    39   21   26 1
    40   21   22 1
    41   21   41 1
    42   22   23 1
    43   22   42 1
    44   22   43 1
    45   23   24 1
    46   23   44 1
    47   23   45 1
    48   24   25 1
    49   24   46 1
    50   24   47 1
    51   25   26 1
    52   25   48 1
    53   25   49 1
    54   26   50 1
    55   26   51 1
@<TRIPOS>MOLECULE
CHEMBL589614__3
   53    55     0     0     0
SMALL
USER_CHARGES

@<TRIPOS>ATOM
      1 C1          0.5757    1.0496   -0.3787 C.3       1 <0>         0.0628
      2 N1          0.4159   -0.4024   -0.2686 N.am      1 <0>        -0.5559
      3 C2         -0.7712   -1.0420   -0.2106 C.2       1 <0>         0.5393
      4 O1         -1.8777   -0.5469   -0.2385 O.2       1 <0>        -0.3849
      5 C3         -0.4221   -2.5133   -0.1034 C.3       1 <0>         0.1708
      6 N2          1.0494   -2.5293   -0.1149 N.pl3     1 <0>        -0.6193
      7 C4          1.4529   -1.3006   -0.2162 C.cat     1 <0>         0.7256
      8 N3          2.7774   -0.9364   -0.2623 N.pl3     1 <0>        -0.7816
      9 C5         -0.9471   -3.0888    1.1866 C.ar      1 <0>        -0.0997
     10 C6         -2.2085   -3.6546    1.2277 C.ar      1 <0>        -0.0947
     11 C7         -2.6936   -4.1841    2.4092 C.ar      1 <0>        -0.0827
     12 C8         -1.9194   -4.1495    3.5526 C.ar      1 <0>        -0.0943
     13 C9         -0.6526   -3.5822    3.5146 C.ar      1 <0>         0.1642
     14 C10        -0.1661   -3.0558    2.3249 C.ar      1 <0>        -0.1369
     15 N4          0.1340   -3.5451    4.6712 N.am      1 <0>        -0.6787
     16 C11         0.0524   -4.5426    5.5739 C.2       1 <0>         0.5142
     17 O2         -0.6296   -5.5179    5.3400 O.2       1 <0>        -0.4843
     18 C12         0.8086   -4.4461    6.8739 C.3       1 <0>         0.0445
     19 O3          0.5632   -5.6168    7.6557 O.3       1 <0>        -0.3662
     20 C13         1.2374   -5.6262    8.9156 C.3       1 <0>         0.0286
     21 C14        -0.9766   -3.2854   -1.3023 C.3       1 <0>        -0.0850
     22 C15        -0.5958   -4.7620   -1.1784 C.3       1 <0>        -0.1160
     23 C16        -1.1504   -5.5341   -2.3773 C.3       1 <0>        -0.1214
     24 C17        -0.5619   -4.9622   -3.6686 C.3       1 <0>        -0.1245
     25 C18        -0.9427   -3.4856   -3.7925 C.3       1 <0>        -0.1184
     26 C19        -0.3881   -2.7135   -2.5937 C.3       1 <0>        -0.1228
     27 H1          1.6368    1.2969   -0.4112 H         1 <0>         0.0992
     28 H2          0.0928    1.4002   -1.2908 H         1 <0>         0.1084
     29 H3          0.1165    1.5321    0.4841 H         1 <0>         0.1078
     30 H4          3.0208   -0.0003   -0.3354 H         1 <0>         0.4430
     31 H5          3.4688   -1.6155   -0.2218 H         1 <0>         0.4458
     32 H6         -2.8159   -3.6826    0.3352 H         1 <0>         0.1388
     33 H7         -3.6791   -4.6249    2.4382 H         1 <0>         0.1444
     34 H8         -2.2991   -4.5629    4.4753 H         1 <0>         0.1469
     35 H9          0.8204   -2.6176    2.2911 H         1 <0>         0.1195
     36 H10         0.7380   -2.8015    4.8234 H         1 <0>         0.4132
     37 H11         1.8759   -4.3638    6.6681 H         1 <0>         0.0852
     38 H12         0.4756   -3.5658    7.4235 H         1 <0>         0.0883
     39 H13         2.3136   -5.5684    8.7522 H         1 <0>         0.0475
     40 H14         0.9133   -4.7703    9.5076 H         1 <0>         0.0484
     41 H15         0.9998   -6.5472    9.4480 H         1 <0>         0.0982
     42 H16        -2.0623   -3.1908   -1.3247 H         1 <0>         0.1206
     43 H17         0.4899   -4.8566   -1.1560 H         1 <0>         0.0617
     44 H18        -1.0151   -5.1694   -0.2584 H         1 <0>         0.0837
     45 H19        -0.8791   -6.5861   -2.2890 H         1 <0>         0.0751
     46 H20        -2.2360   -5.4395   -2.3997 H         1 <0>         0.0717
     47 H21         0.5238   -5.0568   -3.6462 H         1 <0>         0.0624
     48 H22        -0.9569   -5.5123   -4.5227 H         1 <0>         0.0729
     49 H23        -0.5234   -3.0782   -4.7125 H         1 <0>         0.0726
     50 H24        -2.0283   -3.3910   -3.8149 H         1 <0>         0.0725
     51 H25        -0.6594   -1.6615   -2.6819 H         1 <0>         0.0621
     52 H26         0.6975   -2.8081   -2.5713 H         1 <0>         0.0630
     53 H27         1.6146   -3.3157   -0.0608 H         1 <0>         0.4645
@<TRIPOS>BOND
     1    1    2 1
     2    1   27 1
     3    1   28 1
     4    1   29 1
     5    2    7 1
     6    2    3 am
     7    3    4 2
     8    3    5 1
     9    5    6 1
    10    5    9 1
    11    5   21 1
    12    6    7 2
    13    6   53 1
    14    7    8 1
    15    8   30 1
    16    8   31 1
    17    9   14 ar
    18    9   10 ar
    19   10   11 ar
    20   10   32 1
    21   11   12 ar
    22   11   33 1
    23   12   13 ar
    24   12   34 1
    25   13   14 ar
    26   13   15 1
    27   14   35 1
    28   15   16 am
    29   15   36 1
    30   16   17 2
    31   16   18 1
    32   18   19 1
    33   18   37 1
    34   18   38 1
    35   19   20 1
    36   20   39 1
    37   20   40 1
    38   20   41 1
    39   21   26 1
    40   21   22 1
    41   21   42 1
    42   22   23 1
    43   22   43 1
    44   22   44 1
    45   23   24 1
    46   23   45 1
    47   23   46 1
    48   24   25 1
    49   24   47 1
    50   24   48 1
    51   25   26 1
    52   25   49 1
    53   25   50 1
    54   26   51 1
    55   26   52 1
@<TRIPOS>MOLECULE
CHEMBL1098733
   81    86     0     0     0
SMALL
USER_CHARGES

@<TRIPOS>ATOM
      1 C1          0.3432    2.1030   -0.8612 C.ar      1 <0>        -0.0730
      2 C2          1.4893    2.6806   -0.3452 C.ar      1 <0>        -0.1305
      3 C3          2.6021    1.9019   -0.0869 C.ar      1 <0>        -0.0426
      4 C4          2.5721    0.5441   -0.3451 C.ar      1 <0>        -0.2589
      5 C5          1.4237   -0.0367   -0.8622 C.ar      1 <0>         0.1026
      6 C6          0.3073    0.7473   -1.1198 C.ar      1 <0>        -0.1306
      7 O1          1.3860   -1.3685   -1.1162 O.3       1 <0>        -0.2317
      8 C7          2.5597   -2.0459   -1.2306 C.ar      1 <0>         0.1435
      9 C8          2.5754   -3.4116   -0.9871 C.ar      1 <0>        -0.0972
     10 C9          3.7503   -4.1212   -1.1030 C.ar      1 <0>        -0.0748
     11 C10         4.9254   -3.4565   -1.4635 C.ar      1 <0>         0.0752
     12 C11         4.8989   -2.0840   -1.7044 C.ar      1 <0>        -0.0843
     13 C12         3.7185   -1.3823   -1.5886 C.ar      1 <0>        -0.1687
     14 C13         6.1613   -1.3580   -2.0911 C.3       1 <0>         0.0587
     15 N1          7.3257   -2.2395   -2.0807 N.pl3     1 <0>        -0.5493
     16 C14         8.6585   -1.6712   -2.3101 C.3       1 <0>         0.1296
     17 H1          8.9628   -1.8658   -3.3385 H         1 <0>         0.1132
     18 C15         8.6316   -0.1628   -2.0658 C.3       1 <0>        -0.1273
     19 C16         7.9414    0.1333   -0.7333 C.3       1 <0>        -0.3194
     20 C17         7.0426    1.3325   -0.8887 C.2       1 <0>         0.5035
     21 O2          7.4376    2.3244   -1.4639 O.2       1 <0>        -0.5122
     22 N2          5.7810    1.2897   -0.3761 N.am      1 <0>        -0.6240
     23 C18         4.9524    2.4953   -0.5918 C.3       1 <0>         0.1185
     24 C19         3.8525    2.5301    0.4734 C.3       1 <0>        -0.1777
     25 C20         5.2755    0.1192    0.3453 C.3       1 <0>         0.0979
     26 C21         5.0589    0.4808    1.8161 C.3       1 <0>        -0.1815
     27 C22         4.5310   -0.7417    2.5695 C.3       1 <0>        -0.1214
     28 C23         5.5472   -1.8810    2.4687 C.3       1 <0>        -0.1223
     29 C24         5.7638   -2.2426    0.9979 C.3       1 <0>        -0.1265
     30 C25         6.2917   -1.0201    0.2445 C.3       1 <0>        -0.3023
     31 C26         9.6595   -2.3209   -1.3526 C.3       1 <0>        -0.1288
     32 C27         9.1715   -2.1514    0.0876 C.3       1 <0>        -0.1465
     33 C28        10.1724   -2.8011    1.0450 C.3       1 <0>        -0.1170
     34 C29        11.5385   -2.1304    0.8871 C.3       1 <0>        -0.1254
     35 C30        12.0264   -2.3000   -0.5530 C.3       1 <0>        -0.1189
     36 C31        11.0255   -1.6502   -1.5105 C.3       1 <0>        -0.1171
     37 C32         7.2220   -3.5854   -1.8627 C.cat     1 <0>         0.7295
     38 N3          6.0905   -4.1647   -1.5762 N.pl3     1 <0>        -0.5559
     39 N4          8.3544   -4.3570   -1.9505 N.pl3     1 <0>        -0.8472
     40 H2         -0.5263    2.7127   -1.0579 H         1 <0>         0.1404
     41 H3          1.5150    3.7414   -0.1441 H         1 <0>         0.1336
     42 H4          3.4421   -0.0636   -0.1446 H         1 <0>         0.1810
     43 H5         -0.5884    0.2971   -1.5216 H         1 <0>         0.1394
     44 H6          1.6647   -3.9194   -0.7058 H         1 <0>         0.1627
     45 H7          3.7633   -5.1849   -0.9160 H         1 <0>         0.1606
     46 H8          3.6987   -0.3190   -1.7770 H         1 <0>         0.1657
     47 H9          6.0392   -0.9456   -3.0927 H         1 <0>         0.1143
     48 H10         6.3294   -0.5421   -1.3882 H         1 <0>         0.1966
     49 H11         9.6525    0.2181   -2.0377 H         1 <0>         0.1150
     50 H12         8.0857    0.3255   -2.8731 H         1 <0>         0.0857
     51 H13         7.3472   -0.7295   -0.4323 H         1 <0>         0.2167
     52 H14         8.6939    0.3395    0.0278 H         1 <0>         0.1176
     53 H15         5.5738    3.3865   -0.5040 H         1 <0>         0.0958
     54 H16         4.5028    2.4570   -1.5840 H         1 <0>         0.0726
     55 H17         3.6476    3.5641    0.7508 H         1 <0>         0.0959
     56 H18         4.1768    1.9739    1.3529 H         1 <0>         0.1545
     57 H19         4.3296   -0.1978   -0.0940 H         1 <0>         0.1371
     58 H20         6.0048    0.7978    2.2554 H         1 <0>         0.0787
     59 H21         4.3349    1.2925    1.8879 H         1 <0>         0.1306
     60 H22         4.3767   -0.4840    3.6173 H         1 <0>         0.0784
     61 H23         3.5851   -1.0586    2.1302 H         1 <0>         0.0646
     62 H24         6.4931   -1.5640    2.9080 H         1 <0>         0.0678
     63 H25         5.1711   -2.7519    3.0055 H         1 <0>         0.0713
     64 H26         6.4878   -3.0543    0.9261 H         1 <0>         0.0617
     65 H27         4.8179   -2.5596    0.5586 H         1 <0>         0.0718
     66 H28         6.4460   -1.2778   -0.8033 H         1 <0>         0.1794
     67 H29         7.2376   -0.7032    0.6838 H         1 <0>         0.1214
     68 H30         9.7470   -3.3825   -1.5839 H         1 <0>         0.1118
     69 H31         9.0839   -1.0898    0.3189 H         1 <0>         0.0901
     70 H32         8.1983   -2.6292    0.2001 H         1 <0>         0.0537
     71 H33         9.8248   -2.6803    2.0710 H         1 <0>         0.0670
     72 H34        10.2600   -3.8627    0.8137 H         1 <0>         0.0615
     73 H35        11.4509   -1.0688    1.1185 H         1 <0>         0.0644
     74 H36        12.2516   -2.5933    1.5693 H         1 <0>         0.0683
     75 H37        12.9996   -1.8221   -0.6655 H         1 <0>         0.0713
     76 H38        12.1140   -3.3615   -0.7844 H         1 <0>         0.0644
     77 H39        11.3731   -1.7710   -2.5365 H         1 <0>         0.0726
     78 H40        10.9379   -0.5886   -1.2792 H         1 <0>         0.0745
     79 H41         8.5819   -4.9679   -1.2323 H         1 <0>         0.4392
     80 H42         8.9268   -4.2911   -2.7308 H         1 <0>         0.4427
     81 H43         6.0740   -5.1247   -1.4382 H         1 <0>         0.4484
@<TRIPOS>BOND
     1    1    6 ar
     2    1    2 ar
     3    1   40 1
     4    2    3 ar
     5    2   41 1
     6    3   24 1
     7    3    4 ar
     8    4    5 ar
     9    4   42 1
    10    5    6 ar
    11    5    7 1
    12    6   43 1
    13    7    8 1
    14    8   13 ar
    15    8    9 ar
    16    9   10 ar
    17    9   44 1
    18   10   11 ar
    19   10   45 1
    20   11   38 1
    21   11   12 ar
    22   12   13 ar
    23   12   14 1
    24   13   46 1
    25   14   15 1
    26   14   47 1
    27   14   48 1
    28   15   16 1
    29   15   37 1
    30   16   17 1
    31   16   18 1
    32   16   31 1
    33   18   19 1
    34   18   49 1
    35   18   50 1
    36   19   20 1
    37   19   51 1
    38   19   52 1
    39   20   21 2
    40   20   22 am
    41   22   23 1
    42   22   25 1
    43   23   24 1
    44   23   53 1
    45   23   54 1
    46   24   55 1
    47   24   56 1
    48   25   30 1
    49   25   26 1
    50   25   57 1
    51   26   27 1
    52   26   58 1
    53   26   59 1
    54   27   28 1
    55   27   60 1
    56   27   61 1
    57   28   29 1
    58   28   62 1
    59   28   63 1
    60   29   30 1
    61   29   64 1
    62   29   65 1
    63   30   66 1
    64   30   67 1
    65   31   36 1
    66   31   32 1
    67   31   68 1
    68   32   33 1
    69   32   69 1
    70   32   70 1
    71   33   34 1
    72   33   71 1
    73   33   72 1
    74   34   35 1
    75   34   73 1
    76   34   74 1
    77   35   36 1
    78   35   75 1
    79   35   76 1
    80   36   77 1
    81   36   78 1
    82   37   38 2
    83   37   39 1
    84   38   81 1
    85   39   79 1
    86   39   80 1
@<TRIPOS>MOLECULE
CHEMBL271249
   77    81     0     0     0
SMALL
USER_CHARGES

@<TRIPOS>ATOM
      1 C1         -0.0167    1.3781    0.0096 C.ar      1 <0>        -0.1113
      2 C2          1.1709    2.0855    0.0021 C.ar      1 <0>        -0.1236
      3 C3          2.3773    1.4107   -0.0130 C.ar      1 <0>        -0.1040
      4 C4          2.3960    0.0285   -0.0201 C.ar      1 <0>        -0.1160
      5 C5          1.2084   -0.6789   -0.0117 C.ar      1 <0>        -0.0941
      6 C6          0.0021   -0.0041    0.0020 C.ar      1 <0>        -0.1196
      7 C7          3.7112   -0.7071   -0.0376 C.3       1 <0>         0.1671
      8 N1          4.1518   -0.9524    1.3379 N.am      1 <0>        -0.6113
      9 C8          4.9876   -0.0309    2.1165 C.3       1 <0>         0.1179
     10 C9          5.5449   -0.8697    3.2879 C.3       1 <0>        -0.1258
     11 H1          6.5153   -1.2967    3.0349 H         1 <0>         0.1233
     12 C10         4.4720   -1.9750    3.4226 C.3       1 <0>        -0.1475
     13 C11         3.8378   -2.0477    2.0510 C.2       1 <0>         0.5206
     14 O1          3.1485   -2.9623    1.6520 O.2       1 <0>        -0.5139
     15 C12         5.6328   -0.0461    4.5469 C.2       1 <0>         0.5319
     16 O2          5.2860    1.1160    4.5369 O.2       1 <0>        -0.5076
     17 N2          6.0970   -0.6010    5.6841 N.am      1 <0>        -0.7223
     18 C13         6.1825    0.1996    6.9080 C.3       1 <0>         0.1063
     19 H2          6.4453    1.2262    6.6530 H         1 <0>         0.0966
     20 C14         4.8306    0.1820    7.6244 C.3       1 <0>        -0.1093
     21 C15         3.7995    0.8713    6.7683 C.ar      1 <0>        -0.0190
     22 C16         3.5947    2.2322    6.8952 C.ar      1 <0>        -0.1595
     23 C17         2.6473    2.8666    6.1095 C.ar      1 <0>         0.1464
     24 C18         1.9054    2.1372    5.1964 C.ar      1 <0>        -0.1855
     25 C19         2.1117    0.7743    5.0699 C.ar      1 <0>         0.1496
     26 C20         3.0634    0.1430    5.8530 C.ar      1 <0>        -0.1619
     27 F1          1.3884    0.0612    4.1791 F         1 <0>        -0.1227
     28 F2          2.4466    4.1967    6.2344 F         1 <0>        -0.1281
     29 C21         7.2547   -0.3879    7.8278 C.3       1 <0>         0.0933
     30 H3          8.1987   -0.4576    7.2873 H         1 <0>         0.1344
     31 C22         7.4316    0.5177    9.0483 C.3       1 <0>        -0.0120
     32 H4          6.4917    0.6073    9.5929 H         1 <0>         0.1538
     33 C23         8.5413   -0.0376    9.9755 C.3       1 <0>        -0.1270
     34 C24         8.9916    1.2428   10.7269 C.3       1 <0>         0.0723
     35 H5          8.3274    1.4512   11.5656 H         1 <0>         0.1050
     36 C25         8.8695    2.3398    9.6485 C.3       1 <0>        -0.0380
     37 N3          7.9154    1.8518    8.6335 N.4       1 <0>        -0.5063
     38 O3         10.3430    1.1172   11.1742 O.3       1 <0>        -0.3512
     39 C26        10.6294    1.8450   12.3702 C.3       1 <0>         0.1019
     40 C27        12.0741    1.6420   12.7479 C.ar      1 <0>        -0.1096
     41 C28        12.4322    0.5906   13.5708 C.ar      1 <0>        -0.0951
     42 C29        13.7574    0.4044   13.9173 C.ar      1 <0>        -0.1199
     43 C30        14.7246    1.2694   13.4406 C.ar      1 <0>        -0.1023
     44 C31        14.3666    2.3203   12.6169 C.ar      1 <0>        -0.1214
     45 C32        13.0420    2.5039   12.2669 C.ar      1 <0>        -0.0980
     46 O4          6.8535   -1.6910    8.2557 O.3       1 <0>        -0.5196
     47 H6         -0.9591    1.9053    0.0259 H         1 <0>         0.1226
     48 H7          1.1563    3.1654    0.0076 H         1 <0>         0.1219
     49 H8          3.3051    1.9634   -0.0196 H         1 <0>         0.1184
     50 H9          1.2231   -1.7588   -0.0176 H         1 <0>         0.1250
     51 H10        -0.9258   -0.5567    0.0082 H         1 <0>         0.1235
     52 H11         3.5884   -1.6586   -0.5549 H         1 <0>         0.0953
     53 H12         4.4573   -0.1052   -0.5563 H         1 <0>         0.0907
     54 H13         5.8043    0.3482    1.5021 H         1 <0>         0.0869
     55 H14         4.3858    0.7947    2.4964 H         1 <0>         0.0897
     56 H15         4.9354   -2.9268    3.6826 H         1 <0>         0.1138
     57 H16         3.7279   -1.6956    4.1684 H         1 <0>         0.1038
     58 H17         6.3744   -1.5305    5.6921 H         1 <0>         0.4150
     59 H18         4.5260   -0.8496    7.8003 H         1 <0>         0.0989
     60 H19         4.9180    0.7027    8.5780 H         1 <0>         0.0877
     61 H20         4.1737    2.8011    7.6077 H         1 <0>         0.1315
     62 H21         1.1660    2.6311    4.5834 H         1 <0>         0.1490
     63 H22         3.2276   -0.9196    5.7513 H         1 <0>         0.1350
     64 H23         8.1378   -0.7756   10.6688 H         1 <0>         0.1280
     65 H24         9.3618   -0.4581    9.3941 H         1 <0>         0.1149
     66 H25         8.4938    3.2598   10.0963 H         1 <0>         0.1411
     67 H26         9.8419    2.5184    9.1895 H         1 <0>         0.1462
     68 H27         8.3774    1.7825    7.7392 H         1 <0>         0.4322
     69 H28        10.4431    2.9059   12.2033 H         1 <0>         0.0658
     70 H29         9.9893    1.4860   13.1760 H         1 <0>         0.0707
     71 H30        11.6766   -0.0852   13.9433 H         1 <0>         0.1239
     72 H31        14.0371   -0.4166   14.5608 H         1 <0>         0.1288
     73 H32        15.7599    1.1243   13.7118 H         1 <0>         0.1285
     74 H33        15.1222    2.9962   12.2447 H         1 <0>         0.1279
     75 H34        12.7628    3.3227   11.6204 H         1 <0>         0.1212
     76 H35         6.0193   -1.7049    8.7446 H         1 <0>         0.3909
     77 H36         7.1360    2.4888    8.5633 H         1 <0>         0.4342
@<TRIPOS>BOND
     1    1    6 ar
     2    1    2 ar
     3    1   47 1
     4    2    3 ar
     5    2   48 1
     6    3    4 ar
     7    3   49 1
     8    4    5 ar
     9    4    7 1
    10    5    6 ar
    11    5   50 1
    12    6   51 1
    13    7    8 1
    14    7   52 1
    15    7   53 1
    16    8   13 am
    17    8    9 1
    18    9   10 1
    19    9   54 1
    20    9   55 1
    21   10   11 1
    22   10   12 1
    23   10   15 1
    24   12   13 1
    25   12   56 1
    26   12   57 1
    27   13   14 2
    28   15   16 2
    29   15   17 am
    30   17   18 1
    31   17   58 1
    32   18   19 1
    33   18   20 1
    34   18   29 1
    35   20   21 1
    36   20   59 1
    37   20   60 1
    38   21   26 ar
    39   21   22 ar
    40   22   23 ar
    41   22   61 1
    42   23   24 ar
    43   23   28 1
    44   24   25 ar
    45   24   62 1
    46   25   26 ar
    47   25   27 1
    48   26   63 1
    49   29   30 1
    50   29   31 1
    51   29   46 1
    52   31   32 1
    53   31   37 1
    54   31   33 1
    55   33   34 1
    56   33   64 1
    57   33   65 1
    58   34   35 1
    59   34   36 1
    60   34   38 1
    61   36   37 1
    62   36   66 1
    63   36   67 1
    64   37   68 1
    65   37   77 1
    66   38   39 1
    67   39   40 1
    68   39   69 1
    69   39   70 1
    70   40   45 ar
    71   40   41 ar
    72   41   42 ar
    73   41   71 1
    74   42   43 ar
    75   42   72 1
    76   43   44 ar
    77   43   73 1
    78   44   45 ar
    79   44   74 1
    80   45   75 1
    81   46   76 1
@<TRIPOS>MOLECULE
CHEMBL572940
   40    43     0     0     0
SMALL
USER_CHARGES

@<TRIPOS>ATOM
      1 C1          0.0081    1.3781    0.0028 C.ar      1 <0>        -0.1124
      2 C2          1.2002    2.0775   -0.0102 C.ar      1 <0>        -0.1020
      3 C3          2.4033    1.3993   -0.0443 C.ar      1 <0>        -0.1253
      4 C4          2.4245    0.0089   -0.0576 C.ar      1 <0>         0.1225
      5 C5          1.2238   -0.6920   -0.0172 C.ar      1 <0>         0.1439
      6 C6          0.0182   -0.0043   -0.0025 C.ar      1 <0>        -0.1088
      7 N1          1.2134   -2.0910    0.0554 N.pl3     1 <0>        -0.7240
      8 C7          1.8013   -2.7191    1.1476 C.ar      1 <0>         0.2044
      9 C8          1.0371   -3.5309    1.9735 C.ar      1 <0>        -0.0816
     10 C9          1.6154   -4.1244    3.0931 C.ar      1 <0>        -0.0939
     11 C10         2.9631   -3.8990    3.3848 C.ar      1 <0>        -0.1069
     12 C11         3.7283   -3.1087    2.5583 C.ar      1 <0>        -0.0486
     13 C12         3.1626   -2.5256    1.4195 C.ar      1 <0>        -0.1287
     14 C13         4.0087   -1.7499    0.5020 C.2       1 <0>         0.5710
     15 O1          5.1381   -2.1574    0.3126 O.2       1 <0>        -0.5283
     16 N2          3.6511   -0.6481   -0.1367 N.am      1 <0>        -0.6491
     17 C14         0.8024   -4.9930    3.9737 C.2       1 <0>         0.5615
     18 O2         -0.3700   -5.1886    3.7200 O.2       1 <0>        -0.5083
     19 N3          1.3623   -5.5671    5.0570 N.am      1 <0>        -0.6661
     20 C15         0.5726   -6.3087    5.9427 C.ar      1 <0>         0.1309
     21 C16         0.8441   -6.2837    7.3044 C.ar      1 <0>        -0.1128
     22 C17         0.0635   -7.0164    8.1768 C.ar      1 <0>        -0.1342
     23 C18        -0.9892   -7.7760    7.6945 C.ar      1 <0>         0.0868
     24 C19        -1.2617   -7.8024    6.3370 C.ar      1 <0>        -0.1344
     25 C20        -0.4874   -7.0663    5.4618 C.ar      1 <0>        -0.0906
     26 F1         -1.7511   -8.4928    8.5495 F         1 <0>        -0.1382
     27 H1         -0.9309    1.9113    0.0216 H         1 <0>         0.1325
     28 H2          1.1911    3.1573    0.0066 H         1 <0>         0.1330
     29 H3          3.3314    1.9513   -0.0610 H         1 <0>         0.1330
     30 H4         -0.9136   -0.5502    0.0051 H         1 <0>         0.1339
     31 H5          0.8009   -2.6156   -0.6486 H         1 <0>         0.4153
     32 H6         -0.0051   -3.7028    1.7483 H         1 <0>         0.1490
     33 H7          3.4060   -4.3470    4.2620 H         1 <0>         0.1368
     34 H8          4.7692   -2.9377    2.7898 H         1 <0>         0.1447
     35 H9          4.3150   -0.2544   -0.7242 H         1 <0>         0.4116
     36 H10         2.3127   -5.4662    5.2227 H         1 <0>         0.4137
     37 H11         1.6654   -5.6920    7.6809 H         1 <0>         0.1378
     38 H12         0.2743   -6.9972    9.2358 H         1 <0>         0.1414
     39 H13        -2.0829   -8.3958    5.9630 H         1 <0>         0.1407
     40 H14        -0.7033   -7.0833    4.4038 H         1 <0>         0.1497
@<TRIPOS>BOND
     1    1    6 ar
     2    1    2 ar
     3    1   27 1
     4    2    3 ar
     5    2   28 1
     6    3    4 ar
     7    3   29 1
     8    4   16 1
     9    4    5 ar
    10    5    6 ar
    11    5    7 1
    12    6   30 1
    13    7    8 1
    14    7   31 1
    15    8   13 ar
    16    8    9 ar
    17    9   10 ar
    18    9   32 1
    19   10   11 ar
    20   10   17 1
    21   11   12 ar
    22   11   33 1
    23   12   13 ar
    24   12   34 1
    25   13   14 1
    26   14   15 2
    27   14   16 am
    28   16   35 1
    29   17   18 2
    30   17   19 am
    31   19   20 1
    32   19   36 1
    33   20   25 ar
    34   20   21 ar
    35   21   22 ar
    36   21   37 1
    37   22   23 ar
    38   22   38 1
    39   23   24 ar
    40   23   26 1
    41   24   25 ar
    42   24   39 1
    43   25   40 1
@<TRIPOS>MOLECULE
CHEMBL558488
   96    98     0     0     0
SMALL
NO_CHARGES

@<TRIPOS>ATOM
      1 C1          0.1032    1.7912    0.5296 C.3       1 <0>        -0.1476
      2 C2          0.1038    0.2887    0.2410 C.3       1 <0>        -0.0855
      3 H1          0.5460    0.1070   -0.7385 H         1 <0>         0.0681
      4 C3         -1.3339   -0.2341    0.2564 C.3       1 <0>        -0.1137
      5 C4         -2.1108    0.3752   -0.9124 C.3       1 <0>        -0.1209
      6 C5         -2.8099   -0.7379   -1.6956 C.3       1 <0>        -0.1232
      7 C6         -2.4132   -0.6500   -3.1708 C.3       1 <0>        -0.1204
      8 C7         -1.9654   -2.0282   -3.6615 C.3       1 <0>        -0.1211
      9 C8         -0.9462   -1.8614   -4.7904 C.3       1 <0>        -0.1186
     10 C9          0.0242   -3.0441   -4.7803 C.3       1 <0>        -0.1203
     11 C10         1.4622   -2.5237   -4.7344 C.3       1 <0>        -0.1442
     12 C11         2.0306   -2.7390   -3.3554 C.2       1 <0>         0.5149
     13 O1          1.3220   -3.1095   -2.4435 O.2       1 <0>        -0.5192
     14 N1          3.3659   -2.5072   -3.1552 N.am      1 <0>        -0.6160
     15 C12         3.8291   -2.7473   -1.7658 C.3       1 <0>         0.1226
     16 H2          3.3203   -3.6197   -1.3557 H         1 <0>         0.1042
     17 C13         3.4999   -1.5325   -0.9368 C.2       1 <0>         0.5113
     18 O2          3.9598   -0.4476   -1.2237 O.2       1 <0>        -0.5260
     19 N2          2.6764   -1.6728    0.1407 N.am      1 <0>        -0.7194
     20 C14         2.3975   -0.4417    0.9099 C.3       1 <0>         0.1094
     21 H3          2.6115    0.4310    0.2929 H         1 <0>         0.1057
     22 C15         0.9214   -0.4360    1.3121 C.3       1 <0>        -0.1246
     23 C16         3.2739   -0.4108    2.1636 C.3       1 <0>         0.0793
     24 H4          3.0996   -1.3122    2.7511 H         1 <0>         0.1086
     25 C17         4.7468   -0.3453    1.7548 C.3       1 <0>        -0.0700
     26 N3          5.5919   -0.4281    2.9536 N.4       1 <0>        -0.4755
     27 C18         7.0037   -0.4962    2.5537 C.3       1 <0>         0.0554
     28 H5          7.1431   -1.3204    1.8540 H         1 <0>         0.0931
     29 C19         7.4062    0.8178    1.8795 C.3       1 <0>        -0.1497
     30 C20         8.9338    0.8403    1.7413 C.3       1 <0>         0.1215
     31 O3          9.5039    0.8628    3.0507 O.3       1 <0>        -0.3157
     32 C21         9.0519   -0.0443    3.9553 C.ar      1 <0>         0.0953
     33 C22         7.8603   -0.7233    3.7735 C.ar      1 <0>        -0.2771
     34 C23         7.4361   -1.6352    4.7252 C.ar      1 <0>        -0.1531
     35 C24         8.1977   -1.8709    5.8534 C.ar      1 <0>        -0.0716
     36 C25         9.3897   -1.1949    6.0359 C.ar      1 <0>        -0.2032
     37 C26         9.8169   -0.2862    5.0917 C.ar      1 <0>        -0.1307
     38 C27         7.7290   -2.8643    6.8851 C.3       1 <0>        -0.0501
     39 C28         8.8168   -3.9161    7.1115 C.3       1 <0>        -0.1406
     40 C29         7.4416   -2.1367    8.2000 C.3       1 <0>        -0.1400
     41 C30         9.3633    2.0903    0.9707 C.3       1 <0>        -0.1395
     42 C31         9.4024   -0.4115    0.9967 C.3       1 <0>        -0.1744
     43 O4          2.9452    0.7388    2.9463 O.3       1 <0>        -0.5488
     44 C32         5.3406   -2.9842   -1.7613 C.3       1 <0>        -0.1531
     45 C33         4.2624   -2.0598   -4.2241 C.3       1 <0>         0.0874
     46 H6          1.1275    2.1637    0.5186 H         1 <0>         0.0493
     47 H7         -0.4793    2.3075   -0.2335 H         1 <0>         0.0555
     48 H8         -0.3391    1.9729    1.5091 H         1 <0>         0.0567
     49 H9         -1.3267   -1.3199    0.1611 H         1 <0>         0.0644
     50 H10        -1.8120    0.0450    1.1953 H         1 <0>         0.0593
     51 H11        -2.8556    1.0728   -0.5292 H         1 <0>         0.0579
     52 H12        -1.4216    0.9047   -1.5702 H         1 <0>         0.0642
     53 H13        -2.5103   -1.7067   -1.2959 H         1 <0>         0.0668
     54 H14        -3.8899   -0.6246   -1.6024 H         1 <0>         0.0572
     55 H15        -3.2686   -0.3156   -3.7577 H         1 <0>         0.0567
     56 H16        -1.5942    0.0601   -3.2851 H         1 <0>         0.0612
     57 H17        -1.5085   -2.5765   -2.8377 H         1 <0>         0.0713
     58 H18        -2.8294   -2.5808   -4.0308 H         1 <0>         0.0575
     59 H19        -1.4667   -1.8267   -5.7475 H         1 <0>         0.0600
     60 H20        -0.3912   -0.9347   -4.6448 H         1 <0>         0.0605
     61 H21        -0.1664   -3.6629   -3.9035 H         1 <0>         0.0877
     62 H22        -0.1183   -3.6387   -5.6826 H         1 <0>         0.0663
     63 H23         2.0668   -3.0616   -5.4646 H         1 <0>         0.0919
     64 H24         1.4711   -1.4592   -4.9689 H         1 <0>         0.0978
     65 H25         2.2955   -2.5300    0.3877 H         1 <0>         0.4122
     66 H26         0.8069    0.0782    2.2664 H         1 <0>         0.0883
     67 H27         0.5668   -1.4622    1.4075 H         1 <0>         0.0701
     68 H28         4.9767   -1.1779    1.0900 H         1 <0>         0.0995
     69 H29         4.9392    0.5954    1.2389 H         1 <0>         0.1036
     70 H30         5.4437    0.3891    3.5266 H         1 <0>         0.3522
     71 H31         6.9471    0.8802    0.8929 H         1 <0>         0.0768
     72 H32         7.0802    1.6593    2.4909 H         1 <0>         0.0755
     73 H33         6.5052   -2.1645    4.5850 H         1 <0>         0.0849
     74 H34         9.9861   -1.3794    6.9172 H         1 <0>         0.0990
     75 H35        10.7485    0.2408    5.2356 H         1 <0>         0.1014
     76 H36         6.8197   -3.3518    6.5334 H         1 <0>         0.0624
     77 H37         8.4438   -4.6847    7.7884 H         1 <0>         0.0486
     78 H38         9.0862   -4.3711    6.1583 H         1 <0>         0.0522
     79 H39         9.6953   -3.4419    7.5489 H         1 <0>         0.0553
     80 H40         6.6666   -1.3873    8.0388 H         1 <0>         0.0509
     81 H41         7.1026   -2.8552    8.9463 H         1 <0>         0.0491
     82 H42         8.3508   -1.6492    8.5518 H         1 <0>         0.0555
     83 H43         9.0360    2.9796    1.5094 H         1 <0>         0.0636
     84 H44        10.4489    2.1028    0.8745 H         1 <0>         0.0669
     85 H45         8.9108    2.0791   -0.0209 H         1 <0>         0.0718
     86 H46         8.9502   -0.4351    0.0052 H         1 <0>         0.0624
     87 H47        10.4880   -0.3919    0.9005 H         1 <0>         0.0641
     88 H48         9.1030   -1.2991    1.5538 H         1 <0>         0.0679
     89 H49         3.0764    1.5788    2.4857 H         1 <0>         0.3811
     90 H50         5.8418   -2.1418   -2.2381 H         1 <0>         0.0754
     91 H51         5.6902   -3.0806   -0.7334 H         1 <0>         0.0718
     92 H52         5.5667   -3.8990   -2.3093 H         1 <0>         0.0761
     93 H53         3.6983   -1.9536   -5.1507 H         1 <0>         0.0821
     94 H54         4.7000   -1.0991   -3.9530 H         1 <0>         0.0690
     95 H55         5.0558   -2.7940   -4.3639 H         1 <0>         0.0658
     96 H56         5.3507   -1.2553    3.4786 H         1 <0>         0.3389
@<TRIPOS>BOND
     1    1    2 1
     2    1   46 1
     3    1   47 1
     4    1   48 1
     5    2    3 1
     6    2   22 1
     7    2    4 1
     8    4    5 1
     9    4   49 1
    10    4   50 1
    11    5    6 1
    12    5   51 1
    13    5   52 1
    14    6    7 1
    15    6   53 1
    16    6   54 1
    17    7    8 1
    18    7   55 1
    19    7   56 1
    20    8    9 1
    21    8   57 1
    22    8   58 1
    23    9   10 1
    24    9   59 1
    25    9   60 1
    26   10   11 1
    27   10   61 1
    28   10   62 1
    29   11   12 1
    30   11   63 1
    31   11   64 1
    32   12   13 2
    33   12   14 am
    34   14   15 1
    35   14   45 1
    36   15   16 1
    37   15   17 1
    38   15   44 1
    39   17   18 2
    40   17   19 am
    41   19   20 1
    42   19   65 1
    43   20   21 1
    44   20   22 1
    45   20   23 1
    46   22   66 1
    47   22   67 1
    48   23   24 1
    49   23   25 1
    50   23   43 1
    51   25   26 1
    52   25   68 1
    53   25   69 1
    54   26   27 1
    55   26   70 1
    56   26   96 1
    57   27   28 1
    58   27   33 1
    59   27   29 1
    60   29   30 1
    61   29   71 1
    62   29   72 1
    63   30   31 1
    64   30   41 1
    65   30   42 1
    66   31   32 1
    67   32   37 ar
    68   32   33 ar
    69   33   34 ar
    70   34   35 ar
    71   34   73 1
    72   35   36 ar
    73   35   38 1
    74   36   37 ar
    75   36   74 1
    76   37   75 1
    77   38   39 1
    78   38   40 1
    79   38   76 1
    80   39   77 1
    81   39   78 1
    82   39   79 1
    83   40   80 1
    84   40   81 1
    85   40   82 1
    86   41   83 1
    87   41   84 1
    88   41   85 1
    89   42   86 1
    90   42   87 1
    91   42   88 1
    92   43   89 1
    93   44   90 1
    94   44   91 1
    95   44   92 1
    96   45   93 1
    97   45   94 1
    98   45   95 1
@<TRIPOS>MOLECULE
CHEMBL401587
   62    64     0     0     0
SMALL
USER_CHARGES

@<TRIPOS>ATOM
      1 C1         -2.5885   -2.5504    0.7298 C.3       1 <0>        -0.1507
      2 C2         -1.3989   -1.7888    0.1418 C.3       1 <0>        -0.1237
      3 C3         -0.7679   -2.6160   -0.9801 C.3       1 <0>         0.0574
      4 O1          0.3432   -1.9046   -1.5292 O.3       1 <0>        -0.3146
      5 C4          1.0197   -2.5049   -2.5434 C.ar      1 <0>         0.1311
      6 C5          0.6158   -3.7516   -3.0026 C.ar      1 <0>        -0.1999
      7 C6          1.2995   -4.3643   -4.0309 C.ar      1 <0>        -0.0838
      8 C7          2.3994   -3.7292   -4.6113 C.ar      1 <0>        -0.0544
      9 C8          2.8019   -2.4753   -4.1469 C.ar      1 <0>        -0.0590
     10 C9          2.1094   -1.8674   -3.1216 C.ar      1 <0>        -0.1456
     11 C10         3.1355   -4.3823   -5.7135 C.2       1 <0>         0.0809
     12 C11         3.9008   -3.7505   -6.6503 C.2       1 <0>        -0.1769
     13 C12         4.4171   -4.7296   -7.5064 C.2       1 <0>        -0.1499
     14 C13         3.9570   -5.9398   -7.0755 C.2       1 <0>         0.0495
     15 N1          3.1731   -5.7293   -5.9691 N.pl3     1 <0>        -0.4156
     16 C14         2.4892   -6.7674   -5.1939 C.3       1 <0>         0.0729
     17 C15         1.1603   -7.0780   -5.8330 C.2       1 <0>         0.4920
     18 O2          0.8173   -6.4889   -6.8393 O.2       1 <0>        -0.5095
     19 N2          0.3618   -7.9979   -5.2954 N.2       1 <0>        -0.7032
     20 C16        -0.1060   -8.9893   -6.0431 C.2       1 <0>         0.7056
     21 N3         -1.0180   -9.8599   -5.5272 N.pl3     1 <0>        -0.8215
     22 N4          0.3259   -9.1366   -7.3268 N.pl3     1 <0>        -0.7356
     23 C17        -0.2735  -10.1585   -8.1886 C.3       1 <0>         0.1089
     24 C18         0.3865  -10.1134   -9.5681 C.3       1 <0>        -0.1337
     25 C19        -0.2394  -11.1806  -10.4682 C.3       1 <0>         0.0820
     26 O3          0.3770  -11.1385  -11.7567 O.3       1 <0>        -0.5712
     27 C20         4.2553   -7.2498   -7.6902 C.ar      1 <0>        -0.0059
     28 C21         4.7077   -8.3085   -6.9003 C.ar      1 <0>        -0.1105
     29 C22         4.9840   -9.5290   -7.4804 C.ar      1 <0>        -0.1121
     30 C23         4.8143   -9.7061   -8.8424 C.ar      1 <0>        -0.1072
     31 C24         4.3665   -8.6623   -9.6319 C.ar      1 <0>        -0.1075
     32 C25         4.0806   -7.4366   -9.0637 C.ar      1 <0>        -0.0186
     33 Cl1         3.5118   -6.1295  -10.0544 Cl        1 <0>        -0.0484
     34 H1         -3.3281   -2.7278   -0.0510 H         1 <0>         0.0577
     35 H2         -2.2468   -3.5049    1.1302 H         1 <0>         0.0578
     36 H3         -3.0380   -1.9611    1.5290 H         1 <0>         0.0655
     37 H4         -1.7405   -0.8343   -0.2586 H         1 <0>         0.0740
     38 H5         -0.6592   -1.6115    0.9226 H         1 <0>         0.0741
     39 H6         -0.4262   -3.5705   -0.5797 H         1 <0>         0.0626
     40 H7         -1.5075   -2.7933   -1.7608 H         1 <0>         0.0622
     41 H8         -0.2350   -4.2421   -2.5531 H         1 <0>         0.1288
     42 H9          0.9851   -5.3342   -4.3870 H         1 <0>         0.1243
     43 H10         3.6523   -1.9809   -4.5928 H         1 <0>         0.1368
     44 H11         2.4176   -0.8958   -2.7645 H         1 <0>         0.1354
     45 H12         4.0760   -2.6870   -6.7188 H         1 <0>         0.1413
     46 H13         5.0631   -4.5584   -8.3549 H         1 <0>         0.1391
     47 H14         3.1021   -7.6686   -5.1735 H         1 <0>         0.1144
     48 H15         2.3288   -6.4139   -4.1754 H         1 <0>         0.1248
     49 H16        -1.3255   -9.7550   -4.6132 H         1 <0>         0.4261
     50 H17        -1.3599  -10.5846   -6.0738 H         1 <0>         0.4109
     51 H18         1.0302   -8.5648   -7.6702 H         1 <0>         0.4205
     52 H19        -0.1215  -11.1425   -7.7451 H         1 <0>         0.0725
     53 H20        -1.3417   -9.9669   -8.2904 H         1 <0>         0.0741
     54 H21         0.2346   -9.1293  -10.0116 H         1 <0>         0.0821
     55 H22         1.4547  -10.3049   -9.4663 H         1 <0>         0.0801
     56 H23        -0.0875  -12.1646  -10.0247 H         1 <0>         0.0494
     57 H24        -1.3076  -10.9890  -10.5700 H         1 <0>         0.0497
     58 H25         0.0286  -11.7897  -12.3809 H         1 <0>         0.3850
     59 H26         4.8414   -8.1719   -5.8373 H         1 <0>         0.1285
     60 H27         5.3340  -10.3484   -6.8702 H         1 <0>         0.1308
     61 H28         5.0329  -10.6639   -9.2911 H         1 <0>         0.1331
     62 H29         4.2366   -8.8072  -10.6942 H         1 <0>         0.1372
@<TRIPOS>BOND
     1    1    2 1
     2    1   34 1
     3    1   35 1
     4    1   36 1
     5    2    3 1
     6    2   37 1
     7    2   38 1
     8    3    4 1
     9    3   39 1
    10    3   40 1
    11    4    5 1
    12    5   10 ar
    13    5    6 ar
    14    6    7 ar
    15    6   41 1
    16    7    8 ar
    17    7   42 1
    18    8    9 ar
    19    8   11 1
    20    9   10 ar
    21    9   43 1
    22   10   44 1
    23   11   15 1
    24   11   12 2
    25   12   13 1
    26   12   45 1
    27   13   14 2
    28   13   46 1
    29   14   15 1
    30   14   27 1
    31   15   16 1
    32   16   17 1
    33   16   47 1
    34   16   48 1
    35   17   18 2
    36   17   19 1
    37   19   20 2
    38   20   21 1
    39   20   22 1
    40   21   49 1
    41   21   50 1
    42   22   23 1
    43   22   51 1
    44   23   24 1
    45   23   52 1
    46   23   53 1
    47   24   25 1
    48   24   54 1
    49   24   55 1
    50   25   26 1
    51   25   56 1
    52   25   57 1
    53   26   58 1
    54   27   32 ar
    55   27   28 ar
    56   28   29 ar
    57   28   59 1
    58   29   30 ar
    59   29   60 1
    60   30   31 ar
    61   30   61 1
    62   31   32 ar
    63   31   62 1
    64   32   33 1
@<TRIPOS>MOLECULE
CHEMBL401587__1
   62    64     0     0     0
SMALL
USER_CHARGES

@<TRIPOS>ATOM
      1 C1         -2.5662   -2.4123    0.6526 C.3       1 <0>        -0.1507
      2 C2         -1.3786   -1.6567    0.0531 C.3       1 <0>        -0.1237
      3 C3         -0.7479   -2.4976   -1.0587 C.3       1 <0>         0.0573
      4 O1          0.3614   -1.7918   -1.6187 O.3       1 <0>        -0.3146
      5 C4          1.0374   -2.4044   -2.6259 C.ar      1 <0>         0.1315
      6 C5          0.6348   -3.6576   -3.0680 C.ar      1 <0>        -0.1999
      7 C6          1.3181   -4.2827   -4.0892 C.ar      1 <0>        -0.0835
      8 C7          2.4161   -3.6536   -4.6793 C.ar      1 <0>        -0.0551
      9 C8          2.8174   -2.3931   -4.2320 C.ar      1 <0>        -0.0589
     10 C9          2.1253   -1.7728   -3.2138 C.ar      1 <0>        -0.1457
     11 C10         3.1518   -4.3201   -5.7739 C.2       1 <0>         0.0818
     12 C11         3.9147   -3.6995   -6.7200 C.2       1 <0>        -0.1774
     13 C12         4.4314   -4.6889   -7.5639 C.2       1 <0>        -0.1495
     14 C13         3.9739   -5.8941   -7.1164 C.2       1 <0>         0.0481
     15 N1          3.1912   -5.6702   -6.0117 N.pl3     1 <0>        -0.4155
     16 C14         2.5102   -6.6991   -5.2219 C.3       1 <0>         0.0728
     17 C15         1.1813   -7.0212   -5.8556 C.2       1 <0>         0.4932
     18 O2          0.8363   -6.4464   -6.8694 O.2       1 <0>        -0.5105
     19 N2          0.3852   -7.9353   -5.3047 N.2       1 <0>        -0.7038
     20 C16        -0.0811   -8.9378   -6.0386 C.2       1 <0>         0.7072
     21 N3          0.3502   -9.1018   -7.3203 N.pl3     1 <0>        -0.8583
     22 N4         -0.9911   -9.8029   -5.5101 N.pl3     1 <0>        -0.7003
     23 C17        -1.5059  -10.9097   -6.3202 C.3       1 <0>         0.1129
     24 C18        -2.5052  -11.7236   -5.4956 C.3       1 <0>        -0.1330
     25 C19        -3.0428  -12.8794   -6.3417 C.3       1 <0>         0.0795
     26 O3         -3.9761  -13.6396   -5.5715 O.3       1 <0>        -0.5730
     27 C20         4.2735   -7.2116   -7.7141 C.ar      1 <0>        -0.0049
     28 C21         4.7290   -8.2589   -6.9109 C.ar      1 <0>        -0.1098
     29 C22         5.0064   -9.4866   -7.4753 C.ar      1 <0>        -0.1118
     30 C23         4.8349   -9.6821   -8.8346 C.ar      1 <0>        -0.1078
     31 C24         4.3841   -8.6495   -9.6371 C.ar      1 <0>        -0.1096
     32 C25         4.0969   -7.4169   -9.0847 C.ar      1 <0>        -0.0194
     33 Cl1         3.5244   -6.1240  -10.0918 Cl        1 <0>        -0.0484
     34 H1         -3.3066   -2.6011   -0.1247 H         1 <0>         0.0577
     35 H2         -2.2225   -3.3609    1.0651 H         1 <0>         0.0579
     36 H3         -3.0156   -1.8133    1.4447 H         1 <0>         0.0655
     37 H4         -1.7223   -0.7081   -0.3594 H         1 <0>         0.0739
     38 H5         -0.6382   -1.4680    0.8304 H         1 <0>         0.0741
     39 H6         -0.4042   -3.4462   -0.6462 H         1 <0>         0.0627
     40 H7         -1.4883   -2.6863   -1.8360 H         1 <0>         0.0622
     41 H8         -0.2146   -4.1435   -2.6110 H         1 <0>         0.1290
     42 H9          1.0047   -5.2577   -4.4320 H         1 <0>         0.1244
     43 H10         3.6664   -1.9033   -4.6855 H         1 <0>         0.1368
     44 H11         2.4325   -0.7962   -2.8700 H         1 <0>         0.1355
     45 H12         4.0880   -2.6367   -6.8028 H         1 <0>         0.1414
     46 H13         5.0759   -4.5279   -8.4155 H         1 <0>         0.1391
     47 H14         3.1249   -7.5987   -5.1898 H         1 <0>         0.1145
     48 H15         2.3499   -6.3322   -4.2081 H         1 <0>         0.1249
     49 H16         1.0567   -8.5367   -7.6704 H         1 <0>         0.4197
     50 H17        -0.0491   -9.7836   -7.8829 H         1 <0>         0.4023
     51 H18        -1.2982   -9.6861   -4.5975 H         1 <0>         0.4266
     52 H19        -2.0035  -10.5118   -7.2046 H         1 <0>         0.0736
     53 H20        -0.6795  -11.5512   -6.6261 H         1 <0>         0.0742
     54 H21        -2.0075  -12.1214   -4.6112 H         1 <0>         0.0836
     55 H22        -3.3316  -11.0821   -5.1898 H         1 <0>         0.0834
     56 H23        -3.5404  -12.4815   -7.2261 H         1 <0>         0.0506
     57 H24        -2.2163  -13.5209   -6.6475 H         1 <0>         0.0505
     58 H25        -4.3582  -14.3905   -6.0460 H         1 <0>         0.3864
     59 H26         4.8641   -8.1081   -5.8501 H         1 <0>         0.1289
     60 H27         5.3588  -10.2973   -6.8548 H         1 <0>         0.1312
     61 H28         5.0545  -10.6453   -9.2709 H         1 <0>         0.1335
     62 H29         4.2528   -8.8088  -10.6972 H         1 <0>         0.1367
@<TRIPOS>BOND
     1    1    2 1
     2    1   34 1
     3    1   35 1
     4    1   36 1
     5    2    3 1
     6    2   37 1
     7    2   38 1
     8    3    4 1
     9    3   39 1
    10    3   40 1
    11    4    5 1
    12    5   10 ar
    13    5    6 ar
    14    6    7 ar
    15    6   41 1
    16    7    8 ar
    17    7   42 1
    18    8    9 ar
    19    8   11 1
    20    9   10 ar
    21    9   43 1
    22   10   44 1
    23   11   15 1
    24   11   12 2
    25   12   13 1
    26   12   45 1
    27   13   14 2
    28   13   46 1
    29   14   15 1
    30   14   27 1
    31   15   16 1
    32   16   17 1
    33   16   47 1
    34   16   48 1
    35   17   18 2
    36   17   19 1
    37   19   20 2
    38   20   21 1
    39   20   22 1
    40   21   49 1
    41   21   50 1
    42   22   23 1
    43   22   51 1
    44   23   24 1
    45   23   52 1
    46   23   53 1
    47   24   25 1
    48   24   54 1
    49   24   55 1
    50   25   26 1
    51   25   56 1
    52   25   57 1
    53   26   58 1
    54   27   32 ar
    55   27   28 ar
    56   28   29 ar
    57   28   59 1
    58   29   30 ar
    59   29   60 1
    60   30   31 ar
    61   30   61 1
    62   31   32 ar
    63   31   62 1
    64   32   33 1
@<TRIPOS>MOLECULE
CHEMBL1098734
   84    89     0     0     0
SMALL
NO_CHARGES

@<TRIPOS>ATOM
      1 C1          0.4267    1.4768    0.3301 C.ar      1 <0>        -0.0866
      2 C2          1.6950    1.9808    0.5454 C.ar      1 <0>        -0.1600
      3 C3          2.7891    1.1346    0.5574 C.ar      1 <0>        -0.0490
      4 C4          2.6139   -0.2203    0.3630 C.ar      1 <0>        -0.2028
      5 C5          1.3437   -0.7357    0.1603 C.ar      1 <0>         0.1306
      6 C6          0.2487    0.1239    0.1342 C.ar      1 <0>        -0.1572
      7 O1          1.1253   -2.0619    0.0177 O.3       1 <0>        -0.2594
      8 C7          2.0023   -2.8816   -0.6018 C.ar      1 <0>        -0.0256
      9 C8          1.5497   -3.7298   -1.6063 C.ar      1 <0>        -0.0839
     10 C9          2.4232   -4.5971   -2.2268 C.ar      1 <0>        -0.1579
     11 C10         3.7631   -4.6180   -1.8543 C.ar      1 <0>         0.0505
     12 C11         4.2170   -3.7644   -0.8587 C.ar      1 <0>        -0.1527
     13 C12         3.3373   -2.8960   -0.2350 C.ar      1 <0>        -0.1011
     14 C13         5.6622   -3.7707   -0.4442 C.3       1 <0>         0.1515
     15 N1          6.5068   -4.5520   -1.3460 N.pl3     1 <0>        -0.5775
     16 C14         7.9601   -4.3624   -1.2919 C.3       1 <0>         0.1614
     17 H1          8.3431   -4.1996   -2.2993 H         1 <0>         0.0749
     18 C15         8.2833   -3.1476   -0.4212 C.3       1 <0>        -0.1263
     19 C16         7.8644   -1.8675   -1.1469 C.3       1 <0>        -0.1563
     20 C17         7.1559   -0.9503   -0.1843 C.2       1 <0>         0.5134
     21 O2          6.4330   -1.4050    0.6768 O.2       1 <0>        -0.5129
     22 N2          7.3375    0.3992   -0.2922 N.am      1 <0>        -0.6163
     23 C18         6.5943    1.1987    0.7125 C.3       1 <0>         0.1136
     24 C19         5.1978    0.5904    0.8786 C.3       1 <0>        -0.1216
     25 C20         4.1599    1.7106    0.7898 C.3       1 <0>        -0.0876
     26 C21         8.1940    1.0061   -1.3141 C.3       1 <0>         0.1487
     27 C22         9.3881    1.6856   -0.6409 C.3       1 <0>        -0.1297
     28 C23        10.2826    2.3194   -1.7081 C.3       1 <0>        -0.1173
     29 C24         9.4808    3.3587   -2.4941 C.3       1 <0>        -0.1233
     30 C25         8.2867    2.6792   -3.1673 C.3       1 <0>        -0.1172
     31 C26         7.3922    2.0455   -2.1001 C.3       1 <0>        -0.1299
     32 C27         8.6150   -5.6084   -0.6924 C.3       1 <0>        -0.1095
     33 C28         8.1914   -5.7534    0.7706 C.3       1 <0>        -0.1104
     34 C29         8.8463   -6.9994    1.3701 C.3       1 <0>        -0.1194
     35 C30        10.3683   -6.8638    1.2909 C.3       1 <0>        -0.1208
     36 C31        10.7919   -6.7188   -0.1721 C.3       1 <0>        -0.1181
     37 C32        10.1370   -5.4728   -0.7716 C.3       1 <0>        -0.1163
     38 C33         5.9902   -5.4481   -2.2449 C.cat     1 <0>         0.4124
     39 N3          4.6413   -5.5030   -2.4874 N.pl3     1 <0>        -0.5723
     40 N4          6.7911   -6.2588   -2.8777 N.pl3     1 <0>        -0.8169
     41 H2         -0.4246    2.1413    0.3198 H         1 <0>         0.1252
     42 H3          1.8328    3.0401    0.7047 H         1 <0>         0.1182
     43 H4          3.4687   -0.8804    0.3685 H         1 <0>         0.1496
     44 H5         -0.7417   -0.2698   -0.0402 H         1 <0>         0.1258
     45 H6          0.5109   -3.7092   -1.9010 H         1 <0>         0.1158
     46 H7          2.0673   -5.2602   -3.0014 H         1 <0>         0.1111
     47 H8          3.6925   -2.2297    0.5372 H         1 <0>         0.1273
     48 H9          6.0261   -2.7434   -0.4240 H         1 <0>         0.1212
     49 H10         5.7379   -4.1899    0.5591 H         1 <0>         0.0579
     50 H11         7.7424   -3.2232    0.5222 H         1 <0>         0.0997
     51 H12         9.3547   -3.1181   -0.2229 H         1 <0>         0.0877
     52 H13         8.7493   -1.3672   -1.5404 H         1 <0>         0.0896
     53 H14         7.1942   -2.1189   -1.9688 H         1 <0>         0.1032
     54 H15         7.1220    1.1720    1.6659 H         1 <0>         0.0645
     55 H16         6.5071    2.2296    0.3695 H         1 <0>         0.0790
     56 H17         5.0191   -0.1364    0.0861 H         1 <0>         0.0840
     57 H18         5.1256    0.1007    1.8497 H         1 <0>         0.0784
     58 H19         4.4161    2.3763   -0.0344 H         1 <0>         0.0730
     59 H20         4.1602    2.2769    1.7212 H         1 <0>         0.0754
     60 H21         8.5518    0.2330   -1.9942 H         1 <0>         0.0933
     61 H22         9.0303    2.4586    0.0392 H         1 <0>         0.0680
     62 H23         9.9593    0.9451   -0.0810 H         1 <0>         0.0664
     63 H24        11.1333    2.8035   -1.2285 H         1 <0>         0.0670
     64 H25        10.6404    1.5463   -2.3882 H         1 <0>         0.0637
     65 H26         9.1230    4.1318   -1.8140 H         1 <0>         0.0633
     66 H27        10.1181    3.8102   -3.2544 H         1 <0>         0.0648
     67 H28         7.7155    3.4197   -3.7272 H         1 <0>         0.0675
     68 H29         8.6445    1.9062   -3.8474 H         1 <0>         0.0638
     69 H30         6.5415    1.5614   -2.5797 H         1 <0>         0.0683
     70 H31         7.0344    2.8185   -1.4200 H         1 <0>         0.0692
     71 H32         8.2992   -6.4894   -1.2511 H         1 <0>         0.0782
     72 H33         8.5072   -4.8724    1.3294 H         1 <0>         0.0657
     73 H34         7.1072   -5.8500    0.8271 H         1 <0>         0.0647
     74 H35         8.5445   -7.1027    2.4124 H         1 <0>         0.0614
     75 H36         8.5305   -7.8804    0.8114 H         1 <0>         0.0584
     76 H37        10.6841   -5.9828    1.8497 H         1 <0>         0.0618
     77 H38        10.8348   -7.7515    1.7180 H         1 <0>         0.0604
     78 H39        11.8761   -6.6221   -0.2285 H         1 <0>         0.0631
     79 H40        10.4761   -7.5998   -0.7308 H         1 <0>         0.0604
     80 H41        10.4388   -5.3694   -1.8139 H         1 <0>         0.0632
     81 H42        10.4528   -4.5918   -0.2128 H         1 <0>         0.0688
     82 H43         7.7518   -6.1631   -2.7834 H         1 <0>         0.4138
     83 H44         4.2922   -6.1639   -3.1056 H         1 <0>         0.4114
     84 H45         6.4265   -6.9578   -3.4428 H         1 <0>         0.4059
@<TRIPOS>BOND
     1    1    6 ar
     2    1    2 ar
     3    1   41 1
     4    2    3 ar
     5    2   42 1
     6    3   25 1
     7    3    4 ar
     8    4    5 ar
     9    4   43 1
    10    5    6 ar
    11    5    7 1
    12    6   44 1
    13    7    8 1
    14    8   13 ar
    15    8    9 ar
    16    9   10 ar
    17    9   45 1
    18   10   11 ar
    19   10   46 1
    20   11   39 1
    21   11   12 ar
    22   12   13 ar
    23   12   14 1
    24   13   47 1
    25   14   15 1
    26   14   48 1
    27   14   49 1
    28   15   16 1
    29   15   38 1
    30   16   17 1
    31   16   18 1
    32   16   32 1
    33   18   19 1
    34   18   50 1
    35   18   51 1
    36   19   20 1
    37   19   52 1
    38   19   53 1
    39   20   21 2
    40   20   22 am
    41   22   23 1
    42   22   26 1
    43   23   24 1
    44   23   54 1
    45   23   55 1
    46   24   25 1
    47   24   56 1
    48   24   57 1
    49   25   58 1
    50   25   59 1
    51   26   31 1
    52   26   27 1
    53   26   60 1
    54   27   28 1
    55   27   61 1
    56   27   62 1
    57   28   29 1
    58   28   63 1
    59   28   64 1
    60   29   30 1
    61   29   65 1
    62   29   66 1
    63   30   31 1
    64   30   67 1
    65   30   68 1
    66   31   69 1
    67   31   70 1
    68   32   37 1
    69   32   33 1
    70   32   71 1
    71   33   34 1
    72   33   72 1
    73   33   73 1
    74   34   35 1
    75   34   74 1
    76   34   75 1
    77   35   36 1
    78   35   76 1
    79   35   77 1
    80   36   37 1
    81   36   78 1
    82   36   79 1
    83   37   80 1
    84   37   81 1
    85   38   39 1
    86   38   40 2
    87   39   83 1
    88   40   82 1
    89   40   84 1
@<TRIPOS>MOLECULE
CHEMBL1098734__1
   84    89     0     0     0
SMALL
NO_CHARGES

@<TRIPOS>ATOM
      1 C1          0.5780    2.1194   -0.0943 C.ar      1 <0>        -0.0828
      2 C2          1.7656    2.6833   -0.5216 C.ar      1 <0>        -0.1625
      3 C3          2.9203    1.9250   -0.5609 C.ar      1 <0>        -0.0435
      4 C4          2.8876    0.5937   -0.1887 C.ar      1 <0>        -0.1970
      5 C5          1.6985    0.0235    0.2387 C.ar      1 <0>         0.1285
      6 C6          0.5425    0.7953    0.2904 C.ar      1 <0>        -0.1603
      7 O1          1.6345   -1.2769    0.6069 O.3       1 <0>        -0.2508
      8 C7          2.7658   -2.0121    0.7303 C.ar      1 <0>        -0.0159
      9 C8          3.0578   -2.6319    1.9390 C.ar      1 <0>        -0.0721
     10 C9          4.1952   -3.3988    2.0698 C.ar      1 <0>        -0.1703
     11 C10         5.0623   -3.5509    0.9849 C.ar      1 <0>         0.0736
     12 C11         4.7656   -2.9217   -0.2246 C.ar      1 <0>        -0.1337
     13 C12         3.6257   -2.1580   -0.3497 C.ar      1 <0>        -0.0805
     14 C13         5.7030   -3.0834   -1.3953 C.3       1 <0>         0.1655
     15 N1          6.9829   -3.6692   -0.9834 N.pl3     1 <0>        -0.5563
     16 C14         8.1559   -3.4831   -1.8405 C.3       1 <0>         0.1719
     17 H1          7.9185   -3.7975   -2.8568 H         1 <0>         0.0748
     18 C15         8.5446   -2.0020   -1.8399 C.3       1 <0>        -0.1380
     19 C16         7.7568   -1.2663   -2.9247 C.3       1 <0>        -0.1569
     20 C17         7.0224   -0.0965   -2.3212 C.2       1 <0>         0.5113
     21 O2          6.4210   -0.2105   -1.2742 O.2       1 <0>        -0.5036
     22 N2          7.0540    1.0994   -2.9889 N.am      1 <0>        -0.6217
     23 C18         6.2757    2.1899   -2.3505 C.3       1 <0>         0.1185
     24 C19         4.8509    1.6942   -2.1013 C.3       1 <0>        -0.1487
     25 C20         4.2127    2.5571   -1.0094 C.3       1 <0>        -0.0730
     26 C21         7.7989    1.2873   -4.2364 C.3       1 <0>         0.1472
     27 C22         8.9523    2.2642   -3.9995 C.3       1 <0>        -0.1299
     28 C23         9.7302    2.4605   -5.3023 C.3       1 <0>        -0.1173
     29 C24         8.7957    3.0250   -6.3741 C.3       1 <0>        -0.1232
     30 C25         7.6423    2.0481   -6.6111 C.3       1 <0>        -0.1173
     31 C26         6.8644    1.8519   -5.3083 C.3       1 <0>        -0.1293
     32 C27         9.3193   -4.3199   -1.3046 C.3       1 <0>        -0.0745
     33 C28        10.5746   -4.0372   -2.1323 C.3       1 <0>        -0.1278
     34 C29        11.7381   -4.8739   -1.5964 C.3       1 <0>        -0.1168
     35 C30        11.3858   -6.3595   -1.6952 C.3       1 <0>        -0.1200
     36 C31        10.1305   -6.6422   -0.8674 C.3       1 <0>        -0.1230
     37 C32         8.9671   -5.8055   -1.4033 C.3       1 <0>        -0.1431
     38 C33         7.1105   -4.3611    0.1907 C.cat     1 <0>         0.3641
     39 N3          6.1907   -4.3137    1.1166 N.pl3     1 <0>        -0.5121
     40 N4          8.2328   -5.1240    0.4000 N.pl3     1 <0>        -0.8782
     41 H2         -0.3210    2.7167   -0.0575 H         1 <0>         0.1259
     42 H3          1.7911    3.7192   -0.8260 H         1 <0>         0.1187
     43 H4          3.7877   -0.0016   -0.2313 H         1 <0>         0.1431
     44 H5         -0.3837    0.3574    0.6321 H         1 <0>         0.1267
     45 H6          2.3907   -2.5118    2.7798 H         1 <0>         0.1200
     46 H7          4.4163   -3.8816    3.0102 H         1 <0>         0.1167
     47 H8          3.4011   -1.6728   -1.2880 H         1 <0>         0.1158
     48 H9          5.2372   -3.7322   -2.1371 H         1 <0>         0.0547
     49 H10         5.8864   -2.1061   -1.8418 H         1 <0>         0.0975
     50 H11         8.3161   -1.5670   -0.8670 H         1 <0>         0.0846
     51 H12         9.6121   -1.9067   -2.0385 H         1 <0>         0.0850
     52 H13         8.4442   -0.9063   -3.6902 H         1 <0>         0.0883
     53 H14         7.0387   -1.9501   -3.3774 H         1 <0>         0.0972
     54 H15         6.7390    2.4630   -1.4024 H         1 <0>         0.0666
     55 H16         6.2511    3.0566   -3.0111 H         1 <0>         0.0756
     56 H17         4.2698    1.7764   -3.0198 H         1 <0>         0.0581
     57 H18         4.8778    0.6543   -1.7757 H         1 <0>         0.1066
     58 H19         4.0119    3.5528   -1.4047 H         1 <0>         0.0677
     59 H20         4.8931    2.6336   -0.1613 H         1 <0>         0.0757
     60 H21         8.1970    0.3290   -4.5697 H         1 <0>         0.0955
     61 H22         8.5541    3.2226   -3.6662 H         1 <0>         0.0669
     62 H23         9.6180    1.8620   -3.2358 H         1 <0>         0.0657
     63 H24        10.5519    3.1564   -5.1335 H         1 <0>         0.0665
     64 H25        10.1284    1.5021   -5.6355 H         1 <0>         0.0639
     65 H26         8.3975    3.9834   -6.0408 H         1 <0>         0.0629
     66 H27         9.3499    3.1648   -7.3023 H         1 <0>         0.0647
     67 H28         6.9765    2.4503   -7.3747 H         1 <0>         0.0671
     68 H29         8.0405    1.0898   -6.9444 H         1 <0>         0.0642
     69 H30         6.0427    1.1559   -5.4771 H         1 <0>         0.0675
     70 H31         6.4662    2.8102   -4.9750 H         1 <0>         0.0684
     71 H32         9.5048   -4.0589   -0.2626 H         1 <0>         0.0895
     72 H33        10.3892   -4.2981   -3.1743 H         1 <0>         0.0619
     73 H34        10.8256   -2.9788   -2.0620 H         1 <0>         0.0653
     74 H35        12.6324   -4.6726   -2.1861 H         1 <0>         0.0602
     75 H36        11.9236   -4.6130   -0.5545 H         1 <0>         0.0596
     76 H37        11.2003   -6.6205   -2.7371 H         1 <0>         0.0602
     77 H38        12.2147   -6.9556   -1.3133 H         1 <0>         0.0579
     78 H39         9.8796   -7.7006   -0.9378 H         1 <0>         0.0598
     79 H40        10.3160   -6.3813    0.1745 H         1 <0>         0.0584
     80 H41         8.0728   -6.0068   -0.8136 H         1 <0>         0.1272
     81 H42         8.7816   -6.0664   -2.4453 H         1 <0>         0.0362
     82 H43         9.0747   -4.6971    0.6231 H         1 <0>         0.3991
     83 H44         8.1837   -6.0899    0.3248 H         1 <0>         0.4002
     84 H45         6.3116   -4.8364    1.9247 H         1 <0>         0.4115
@<TRIPOS>BOND
     1    1    6 ar
     2    1    2 ar
     3    1   41 1
     4    2    3 ar
     5    2   42 1
     6    3   25 1
     7    3    4 ar
     8    4    5 ar
     9    4   43 1
    10    5    6 ar
    11    5    7 1
    12    6   44 1
    13    7    8 1
    14    8   13 ar
    15    8    9 ar
    16    9   10 ar
    17    9   45 1
    18   10   11 ar
    19   10   46 1
    20   11   39 1
    21   11   12 ar
    22   12   13 ar
    23   12   14 1
    24   13   47 1
    25   14   15 1
    26   14   48 1
    27   14   49 1
    28   15   16 1
    29   15   38 1
    30   16   17 1
    31   16   18 1
    32   16   32 1
    33   18   19 1
    34   18   50 1
    35   18   51 1
    36   19   20 1
    37   19   52 1
    38   19   53 1
    39   20   21 2
    40   20   22 am
    41   22   23 1
    42   22   26 1
    43   23   24 1
    44   23   54 1
    45   23   55 1
    46   24   25 1
    47   24   56 1
    48   24   57 1
    49   25   58 1
    50   25   59 1
    51   26   31 1
    52   26   27 1
    53   26   60 1
    54   27   28 1
    55   27   61 1
    56   27   62 1
    57   28   29 1
    58   28   63 1
    59   28   64 1
    60   29   30 1
    61   29   65 1
    62   29   66 1
    63   30   31 1
    64   30   67 1
    65   30   68 1
    66   31   69 1
    67   31   70 1
    68   32   37 1
    69   32   33 1
    70   32   71 1
    71   33   34 1
    72   33   72 1
    73   33   73 1
    74   34   35 1
    75   34   74 1
    76   34   75 1
    77   35   36 1
    78   35   76 1
    79   35   77 1
    80   36   37 1
    81   36   78 1
    82   36   79 1
    83   37   80 1
    84   37   81 1
    85   38   39 2
    86   38   40 1
    87   39   84 1
    88   40   82 1
    89   40   83 1
@<TRIPOS>MOLECULE
CHEMBL589891
   60    63     0     0     0
SMALL
USER_CHARGES

@<TRIPOS>ATOM
      1 C1         -0.0167    1.3781    0.0096 C.ar      1 <0>        -0.0922
      2 C2          1.1709    2.0855    0.0021 C.ar      1 <0>        -0.1114
      3 C3          2.3773    1.4107   -0.0130 C.ar      1 <0>        -0.1059
      4 C4          2.3960    0.0285   -0.0201 C.ar      1 <0>        -0.1145
      5 C5          1.2084   -0.6789   -0.0117 C.ar      1 <0>        -0.0802
      6 C6          0.0021   -0.0041    0.0020 C.ar      1 <0>        -0.1081
      7 C7          3.7112   -0.7071   -0.0376 C.3       1 <0>         0.1670
      8 C8          4.2484   -0.8698    1.3707 C.2       1 <0>         0.5389
      9 O1          3.7312   -1.4628    2.2932 O.2       1 <0>        -0.3835
     10 N1          5.4270   -0.2122    1.3753 N.am      1 <0>        -0.5465
     11 C9          5.6810    0.3353    0.1422 C.cat     1 <0>         0.7259
     12 N2          4.7414    0.0930   -0.7188 N.pl3     1 <0>        -0.6240
     13 N3          6.8101    1.0629   -0.1489 N.pl3     1 <0>        -0.7813
     14 C10         6.3133   -0.0984    2.5362 C.3       1 <0>         0.0955
     15 C11         7.2986   -1.2689    2.5424 C.3       1 <0>        -0.1070
     16 C12         6.5335   -2.5785    2.7441 C.3       1 <0>        -0.1153
     17 C13         7.5188   -3.7490    2.7503 C.3       1 <0>        -0.0887
     18 C14         8.5230   -3.5643    3.8897 C.3       1 <0>        -0.1566
     19 C15         9.2881   -2.2548    3.6880 C.3       1 <0>        -0.0912
     20 C16         8.3028   -1.0843    3.6819 C.3       1 <0>        -0.1101
     21 C17         9.4934   -4.7173    3.8958 C.2       1 <0>         0.4918
     22 O2         10.6337   -4.5522    4.2946 O.co2     1 <0>        -0.6962
     23 O3          9.1383   -5.8151    3.5020 O.co2     1 <0>        -0.6972
     24 C18         3.5537   -2.0694   -0.7161 C.3       1 <0>        -0.0847
     25 C19         3.0765   -1.8698   -2.1560 C.3       1 <0>        -0.1140
     26 C20         2.9190   -3.2321   -2.8345 C.3       1 <0>        -0.1196
     27 C21         4.2658   -3.9581   -2.8395 C.3       1 <0>        -0.1231
     28 C22         4.7430   -4.1576   -1.3996 C.3       1 <0>        -0.1187
     29 C23         4.9005   -2.7954   -0.7211 C.3       1 <0>        -0.1300
     30 H1         -0.9591    1.9053    0.0259 H         1 <0>         0.1341
     31 H2          1.1563    3.1654    0.0076 H         1 <0>         0.1326
     32 H3          3.3051    1.9634   -0.0196 H         1 <0>         0.1153
     33 H4          1.2231   -1.7588   -0.0176 H         1 <0>         0.1369
     34 H5         -0.9258   -0.5567    0.0082 H         1 <0>         0.1374
     35 H6          7.4804    1.2129    0.5360 H         1 <0>         0.4445
     36 H7          6.9366    1.4265   -1.0393 H         1 <0>         0.4431
     37 H8          6.8647    0.8403    2.4818 H         1 <0>         0.1040
     38 H9          5.7195   -0.1185    3.4500 H         1 <0>         0.1235
     39 H10         7.8301   -1.3015    1.5914 H         1 <0>         0.0768
     40 H11         6.0020   -2.5460    3.6952 H         1 <0>         0.0688
     41 H12         5.8181   -2.7100    1.9323 H         1 <0>         0.0443
     42 H13         6.9737   -4.6819    2.8940 H         1 <0>         0.0704
     43 H14         8.0503   -3.7815    1.7992 H         1 <0>         0.0514
     44 H15         7.9914   -3.5318    4.8408 H         1 <0>         0.0633
     45 H16        10.0035   -2.1233    4.4998 H         1 <0>         0.0742
     46 H17         9.8196   -2.2873    2.7370 H         1 <0>         0.0540
     47 H18         8.8479   -0.1513    3.5382 H         1 <0>         0.0613
     48 H19         7.7713   -1.0518    4.6329 H         1 <0>         0.0676
     49 H20         2.8220   -2.6648   -0.1700 H         1 <0>         0.1177
     50 H21         2.1170   -1.3526   -2.1524 H         1 <0>         0.0792
     51 H22         3.8082   -1.2744   -2.7020 H         1 <0>         0.0611
     52 H23         2.1873   -3.8275   -2.2885 H         1 <0>         0.0701
     53 H24         2.5790   -3.0899   -3.8603 H         1 <0>         0.0718
     54 H25         4.1535   -4.9286   -3.3229 H         1 <0>         0.0712
     55 H26         4.9975   -3.3626   -3.3856 H         1 <0>         0.0616
     56 H27         4.0113   -4.7531   -0.8536 H         1 <0>         0.0718
     57 H28         5.7024   -4.6748   -1.4032 H         1 <0>         0.0763
     58 H29         5.6322   -2.1999   -1.2672 H         1 <0>         0.0626
     59 H30         5.2404   -2.9375    0.3047 H         1 <0>         0.0728
     60 H31         4.7217    0.3855   -1.6434 H         1 <0>         0.4614
@<TRIPOS>BOND
     1    1    6 ar
     2    1    2 ar
     3    1   30 1
     4    2    3 ar
     5    2   31 1
     6    3    4 ar
     7    3   32 1
     8    4    5 ar
     9    4    7 1
    10    5    6 ar
    11    5   33 1
    12    6   34 1
    13    7   12 1
    14    7    8 1
    15    7   24 1
    16    8    9 2
    17    8   10 am
    18   10   11 1
    19   10   14 1
    20   11   12 2
    21   11   13 1
    22   12   60 1
    23   13   35 1
    24   13   36 1
    25   14   15 1
    26   14   37 1
    27   14   38 1
    28   15   20 1
    29   15   16 1
    30   15   39 1
    31   16   17 1
    32   16   40 1
    33   16   41 1
    34   17   18 1
    35   17   42 1
    36   17   43 1
    37   18   19 1
    38   18   21 1
    39   18   44 1
    40   19   20 1
    41   19   45 1
    42   19   46 1
    43   20   47 1
    44   20   48 1
    45   21   22 2
    46   21   23 1
    47   24   29 1
    48   24   25 1
    49   24   49 1
    50   25   26 1
    51   25   50 1
    52   25   51 1
    53   26   27 1
    54   26   52 1
    55   26   53 1
    56   27   28 1
    57   27   54 1
    58   27   55 1
    59   28   29 1
    60   28   56 1
    61   28   57 1
    62   29   58 1
    63   29   59 1
@<TRIPOS>MOLECULE
CHEMBL589891__1
   60    63     0     0     0
SMALL
USER_CHARGES

@<TRIPOS>ATOM
      1 C1         -0.0167    1.3781    0.0096 C.ar      1 <0>        -0.0888
      2 C2          1.1709    2.0855    0.0021 C.ar      1 <0>        -0.1069
      3 C3          2.3773    1.4107   -0.0130 C.ar      1 <0>        -0.1018
      4 C4          2.3960    0.0285   -0.0201 C.ar      1 <0>        -0.1199
      5 C5          1.2084   -0.6789   -0.0117 C.ar      1 <0>        -0.0823
      6 C6          0.0021   -0.0041    0.0020 C.ar      1 <0>        -0.1092
      7 C7          3.7112   -0.7071   -0.0376 C.3       1 <0>         0.1686
      8 C8          4.2187   -0.8557   -1.4583 C.2       1 <0>         0.5388
      9 O1          3.6820   -1.4389   -2.3759 O.2       1 <0>        -0.3835
     10 N1          5.3971   -0.1980   -1.4811 N.am      1 <0>        -0.5466
     11 C9          5.6769    0.3372   -0.2482 C.cat     1 <0>         0.7258
     12 N2          4.7555    0.0863    0.6298 N.pl3     1 <0>        -0.6244
     13 N3          6.8123    1.0613    0.0267 N.pl3     1 <0>        -0.7815
     14 C10         6.2589   -0.0725   -2.6591 C.3       1 <0>         0.0957
     15 C11         5.8741    1.1852   -3.4409 C.3       1 <0>        -0.1069
     16 C12         4.4554    1.0290   -3.9920 C.3       1 <0>        -0.1118
     17 C13         4.0706    2.2867   -4.7737 C.3       1 <0>        -0.0885
     18 C14         5.0490    2.4859   -5.9330 C.3       1 <0>        -0.1566
     19 C15         6.4677    2.6421   -5.3819 C.3       1 <0>        -0.0911
     20 C16         6.8525    1.3844   -4.6002 C.3       1 <0>        -0.1101
     21 C17         4.6700    3.7247   -6.7029 C.2       1 <0>         0.4918
     22 O2          5.5297    4.3760   -7.2714 O.co2     1 <0>        -0.6962
     23 O3          3.5036    4.0756   -6.7574 O.co2     1 <0>        -0.6974
     24 C18         3.5678   -2.0761    0.6305 C.3       1 <0>        -0.0835
     25 C19         3.1209   -1.8910    2.0820 C.3       1 <0>        -0.1157
     26 C20         2.9775   -3.2599    2.7500 C.3       1 <0>        -0.1203
     27 C21         4.3240   -3.9858    2.7196 C.3       1 <0>        -0.1234
     28 C22         4.7709   -4.1709    1.2680 C.3       1 <0>        -0.1177
     29 C23         4.9143   -2.8020    0.6000 C.3       1 <0>        -0.1240
     30 H1         -0.9591    1.9053    0.0259 H         1 <0>         0.1350
     31 H2          1.1563    3.1654    0.0076 H         1 <0>         0.1348
     32 H3          3.3051    1.9634   -0.0196 H         1 <0>         0.1156
     33 H4          1.2231   -1.7588   -0.0176 H         1 <0>         0.1342
     34 H5         -0.9258   -0.5567    0.0082 H         1 <0>         0.1366
     35 H6          7.4684    1.2177   -0.6704 H         1 <0>         0.4444
     36 H7          6.9575    1.4160    0.9178 H         1 <0>         0.4431
     37 H8          7.2992    0.0008   -2.3422 H         1 <0>         0.1041
     38 H9          6.1339   -0.9484   -3.2957 H         1 <0>         0.1236
     39 H10         5.9137    2.0505   -2.7792 H         1 <0>         0.0759
     40 H11         4.4158    0.1637   -4.6536 H         1 <0>         0.0680
     41 H12         3.7583    0.8871   -3.1661 H         1 <0>         0.0416
     42 H13         3.0598    2.1755   -5.1663 H         1 <0>         0.0699
     43 H14         4.1101    3.1520   -4.1121 H         1 <0>         0.0507
     44 H15         5.0094    1.6206   -6.5946 H         1 <0>         0.0634
     45 H16         7.1647    2.7840   -6.2078 H         1 <0>         0.0743
     46 H17         6.5073    3.5074   -4.7203 H         1 <0>         0.0538
     47 H18         7.8632    1.4957   -4.2075 H         1 <0>         0.0613
     48 H19         6.8129    0.5191   -5.2618 H         1 <0>         0.0677
     49 H20         2.8247   -2.6661    0.0940 H         1 <0>         0.1178
     50 H21         3.8639   -1.3009    2.6185 H         1 <0>         0.0617
     51 H22         2.1616   -1.3738    2.1037 H         1 <0>         0.0823
     52 H23         2.6591   -3.1281    3.7841 H         1 <0>         0.0729
     53 H24         2.2345   -3.8500    2.2135 H         1 <0>         0.0704
     54 H25         5.0671   -3.3958    3.2561 H         1 <0>         0.0621
     55 H26         4.2219   -4.9611    3.1955 H         1 <0>         0.0707
     56 H27         5.7302   -4.6881    1.2464 H         1 <0>         0.0713
     57 H28         4.0279   -4.7610    0.7315 H         1 <0>         0.0714
     58 H29         5.2327   -2.9339   -0.4341 H         1 <0>         0.0641
     59 H30         5.6574   -2.2119    1.1365 H         1 <0>         0.0632
     60 H31         4.7548    0.3703    1.5573 H         1 <0>         0.4613
@<TRIPOS>BOND
     1    1    6 ar
     2    1    2 ar
     3    1   30 1
     4    2    3 ar
     5    2   31 1
     6    3    4 ar
     7    3   32 1
     8    4    5 ar
     9    4    7 1
    10    5    6 ar
    11    5   33 1
    12    6   34 1
    13    7   12 1
    14    7    8 1
    15    7   24 1
    16    8    9 2
    17    8   10 am
    18   10   11 1
    19   10   14 1
    20   11   12 2
    21   11   13 1
    22   12   60 1
    23   13   35 1
    24   13   36 1
    25   14   15 1
    26   14   37 1
    27   14   38 1
    28   15   20 1
    29   15   16 1
    30   15   39 1
    31   16   17 1
    32   16   40 1
    33   16   41 1
    34   17   18 1
    35   17   42 1
    36   17   43 1
    37   18   19 1
    38   18   21 1
    39   18   44 1
    40   19   20 1
    41   19   45 1
    42   19   46 1
    43   20   47 1
    44   20   48 1
    45   21   22 2
    46   21   23 1
    47   24   29 1
    48   24   25 1
    49   24   49 1
    50   25   26 1
    51   25   50 1
    52   25   51 1
    53   26   27 1
    54   26   52 1
    55   26   53 1
    56   27   28 1
    57   27   54 1
    58   27   55 1
    59   28   29 1
    60   28   56 1
    61   28   57 1
    62   29   58 1
    63   29   59 1
@<TRIPOS>MOLECULE
CHEMBL26125
   76    80     0     0     0
SMALL
USER_CHARGES

@<TRIPOS>ATOM
      1 C1         -0.7408   -2.4475    0.9308 C.3       1 <0>        -0.1869
      2 C2          0.7025   -1.9511    1.0378 C.3       1 <0>        -0.0185
      3 N1          0.7146   -0.4824    1.0640 N.4       1 <0>        -0.3821
      4 C3          2.1030   -0.0035    1.0313 C.3       1 <0>         0.0388
      5 C4          2.7348   -0.3839   -0.2829 C.ar      1 <0>        -0.1573
      6 C5          3.3878   -1.5956   -0.4107 C.ar      1 <0>        -0.0988
      7 C6          3.9674   -1.9446   -1.6162 C.ar      1 <0>        -0.1130
      8 C7          3.8935   -1.0821   -2.6940 C.ar      1 <0>        -0.0853
      9 C8          3.2397    0.1291   -2.5664 C.ar      1 <0>        -0.1127
     10 C9          2.6564    0.4762   -1.3622 C.ar      1 <0>        -0.0936
     11 C10         0.0622   -0.0092    2.2922 C.3       1 <0>         0.0390
     12 C11        -0.0524    1.4929    2.2534 C.ar      1 <0>        -0.1568
     13 C12         0.9091    2.2733    2.8702 C.ar      1 <0>        -0.0894
     14 C13         0.8097    3.6492    2.8381 C.ar      1 <0>        -0.0950
     15 C14        -0.2626    4.2528    2.1819 C.ar      1 <0>         0.0154
     16 C15        -1.2284    3.4608    1.5616 C.ar      1 <0>        -0.0962
     17 C16        -1.1155    2.0860    1.5963 C.ar      1 <0>        -0.0920
     18 C17        -0.3755    5.7297    2.1442 C.2       1 <0>        -0.2128
     19 C18        -0.2909    6.4197    0.9601 C.2       1 <0>         0.0341
     20 C19        -0.3741    7.8359    1.0006 C.ar      1 <0>        -0.2011
     21 C20        -0.4951    8.5755   -0.1850 C.ar      1 <0>        -0.0047
     22 C21        -0.6144    9.9330   -0.1296 C.ar      1 <0>        -0.2262
     23 C22        -0.6096   10.5943    1.0974 C.ar      1 <0>         0.1999
     24 C23        -0.4722    9.8825    2.2783 C.ar      1 <0>        -0.1733
     25 C24        -0.3427    8.5034    2.2395 C.ar      1 <0>         0.1872
     26 O1         -0.1658    7.7979    3.3833 O.3       1 <0>        -0.2701
     27 C25        -0.5884    6.5099    3.3739 C.2       1 <0>         0.5214
     28 O2         -1.1216    6.0132    4.3490 O.2       1 <0>        -0.4278
     29 O3         -0.7399   11.9449    1.1357 O.3       1 <0>        -0.2989
     30 C26        -0.8772   12.6192   -0.1167 C.3       1 <0>         0.0421
     31 C27        -1.0110   14.1239    0.1262 C.3       1 <0>         0.1213
     32 N2          0.2315   14.6370    0.7084 N.am      1 <0>        -0.7320
     33 C28         0.3448   15.9460    1.0087 C.2       1 <0>         0.5159
     34 O4         -0.5819   16.6991    0.7970 O.2       1 <0>        -0.5224
     35 C29         1.6230   16.4738    1.6077 C.3       1 <0>        -0.1027
     36 C30         1.4911   17.9558    1.8469 C.ar      1 <0>        -0.0141
     37 C31         1.8512   18.8498    0.8563 C.ar      1 <0>        -0.1502
     38 C32         1.7309   20.2119    1.0752 C.ar      1 <0>         0.1350
     39 C33         1.2495   20.6778    2.2864 C.ar      1 <0>        -0.1899
     40 C34         0.8888   19.7815    3.2776 C.ar      1 <0>         0.1353
     41 C35         1.0050   18.4198    3.0546 C.ar      1 <0>        -0.1500
     42 F1          0.4187   20.2349    4.4602 F         1 <0>        -0.1282
     43 F2          2.0837   21.0856    0.1070 F         1 <0>        -0.1284
     44 H1         -1.2202   -1.9871    0.0670 H         1 <0>         0.0788
     45 H2         -0.7446   -3.5312    0.8139 H         1 <0>         0.1060
     46 H3         -1.2857   -2.1777    1.8355 H         1 <0>         0.0811
     47 H4          1.1517   -2.3346    1.9539 H         1 <0>         0.1300
     48 H5          1.2727   -2.3039    0.1783 H         1 <0>         0.1323
     49 H6          2.1159    1.0810    1.1402 H         1 <0>         0.1370
     50 H7          2.6633   -0.4574    1.8487 H         1 <0>         0.1350
     51 H8          3.4456   -2.2694    0.4313 H         1 <0>         0.1311
     52 H9          4.4782   -2.8909   -1.7159 H         1 <0>         0.1361
     53 H10         4.3469   -1.3545   -3.6356 H         1 <0>         0.1356
     54 H11         3.1822    0.8031   -3.4084 H         1 <0>         0.1354
     55 H12         2.1424    1.4209   -1.2636 H         1 <0>         0.1296
     56 H13        -0.9329   -0.4477    2.3671 H         1 <0>         0.1406
     57 H14         0.6561   -0.3062    3.1566 H         1 <0>         0.1371
     58 H15         1.7391    1.8047    3.3781 H         1 <0>         0.1357
     59 H16         1.5605    4.2574    3.3206 H         1 <0>         0.1356
     60 H17        -2.0612    3.9227    1.0522 H         1 <0>         0.1380
     61 H18        -1.8609    1.4717    1.1132 H         1 <0>         0.1344
     62 H19        -0.1642    5.8986    0.0227 H         1 <0>         0.1518
     63 H20        -0.4935    8.0711   -1.1400 H         1 <0>         0.1457
     64 H21        -0.7129   10.5000   -1.0435 H         1 <0>         0.1450
     65 H22        -0.4657   10.4009    3.2258 H         1 <0>         0.1560
     66 H23         0.0024   12.4272   -0.7311 H         1 <0>         0.0799
     67 H24        -1.7662   12.2536   -0.6306 H         1 <0>         0.0899
     68 H25        -1.2045   14.6289   -0.8202 H         1 <0>         0.0971
     69 H26        -1.8374   14.3091    0.8124 H         1 <0>         0.0846
     70 H27         0.9727   14.0346    0.8778 H         1 <0>         0.4046
     71 H28         1.8164   15.9688    2.5541 H         1 <0>         0.1134
     72 H29         2.4494   16.2886    0.9215 H         1 <0>         0.1130
     73 H30         2.2268   18.4860   -0.0887 H         1 <0>         0.1416
     74 H31         1.1557   21.7400    2.4581 H         1 <0>         0.1507
     75 H32         0.7195   17.7201    3.8262 H         1 <0>         0.1418
     76 H33         0.2174   -0.1276    0.2609 H         1 <0>         0.4208
@<TRIPOS>BOND
     1    1    2 1
     2    1   44 1
     3    1   45 1
     4    1   46 1
     5    2    3 1
     6    2   47 1
     7    2   48 1
     8    3    4 1
     9    3   11 1
    10    3   76 1
    11    4    5 1
    12    4   49 1
    13    4   50 1
    14    5   10 ar
    15    5    6 ar
    16    6    7 ar
    17    6   51 1
    18    7    8 ar
    19    7   52 1
    20    8    9 ar
    21    8   53 1
    22    9   10 ar
    23    9   54 1
    24   10   55 1
    25   11   12 1
    26   11   56 1
    27   11   57 1
    28   12   17 ar
    29   12   13 ar
    30   13   14 ar
    31   13   58 1
    32   14   15 ar
    33   14   59 1
    34   15   16 ar
    35   15   18 1
    36   16   17 ar
    37   16   60 1
    38   17   61 1
    39   18   27 1
    40   18   19 2
    41   19   20 1
    42   19   62 1
    43   20   25 ar
    44   20   21 ar
    45   21   22 ar
    46   21   63 1
    47   22   23 ar
    48   22   64 1
    49   23   24 ar
    50   23   29 1
    51   24   25 ar
    52   24   65 1
    53   25   26 1
    54   26   27 1
    55   27   28 2
    56   29   30 1
    57   30   31 1
    58   30   66 1
    59   30   67 1
    60   31   32 1
    61   31   68 1
    62   31   69 1
    63   32   33 am
    64   32   70 1
    65   33   34 2
    66   33   35 1
    67   35   36 1
    68   35   71 1
    69   35   72 1
    70   36   41 ar
    71   36   37 ar
    72   37   38 ar
    73   37   73 1
    74   38   39 ar
    75   38   43 1
    76   39   40 ar
    77   39   74 1
    78   40   41 ar
    79   40   42 1
    80   41   75 1
@<TRIPOS>MOLECULE
CHEMBL210240
   77    78     0     0     0
SMALL
USER_CHARGES

@<TRIPOS>ATOM
      1 C1          3.0125    0.8736  -10.4975 C.3       1 <0>        -0.1544
      2 C2          3.1286   -0.6348  -10.2692 C.3       1 <0>        -0.1211
      3 C3          3.4696   -0.9038   -8.8022 C.3       1 <0>        -0.1335
      4 C4          3.5858   -2.4122   -8.5739 C.3       1 <0>         0.1205
      5 N1          3.9123   -2.6698   -7.1692 N.am      1 <0>        -0.7321
      6 C5          4.0645   -3.9363   -6.7340 C.2       1 <0>         0.5111
      7 O1          3.9312   -4.8627   -7.5052 O.2       1 <0>        -0.5173
      8 C6          4.4004   -4.2012   -5.2890 C.3       1 <0>        -0.1065
      9 H1          3.6129   -3.7971   -4.6529 H         1 <0>         0.1037
     10 C7          5.7306   -3.5291   -4.9430 C.3       1 <0>        -0.1470
     11 C8          4.5166   -5.7096   -5.0607 C.3       1 <0>        -0.1322
     12 C9          3.1443   -6.3606   -5.2456 C.3       1 <0>         0.0866
     13 H2          2.7748   -6.1505   -6.2493 H         1 <0>         0.1425
     14 C10         3.2676   -7.8738   -5.0537 C.3       1 <0>         0.1331
     15 H3          3.7310   -8.0819   -4.0896 H         1 <0>         0.0987
     16 C11         4.1245   -8.4641   -6.1755 C.3       1 <0>        -0.1199
     17 S1          3.6474   -7.7148   -7.7569 S.3       1 <0>        -0.1593
     18 C12         3.6417   -9.1068   -8.9195 C.3       1 <0>        -0.1000
     19 C13         2.4617   -9.9985   -8.6315 C.2       1 <0>        -0.1071
     20 C14         2.4220  -11.2116   -9.1241 C.2       1 <0>        -0.1627
     21 C15         1.2405  -12.1019   -8.8376 C.3       1 <0>        -0.0551
     22 S2          1.1411  -12.4212   -7.0541 S.3       1 <0>        -0.1892
     23 C16        -0.5343  -13.0771   -6.8232 C.3       1 <0>        -0.0979
     24 H4         -1.1744  -12.7135   -7.6295 H         1 <0>         0.1273
     25 C17        -0.4919  -14.6065   -6.8619 C.3       1 <0>        -0.1340
     26 C18        -1.9273  -15.1416   -6.8238 C.3       1 <0>        -0.1462
     27 C19        -2.8564  -14.0232   -6.3429 C.3       1 <0>        -0.0078
     28 N2         -2.2896  -13.3961   -5.1456 N.4       1 <0>        -0.4936
     29 C20        -1.0938  -12.6099   -5.4796 C.3       1 <0>         0.0286
     30 H5         -1.3776  -11.5598   -5.5530 H         1 <0>         0.1623
     31 C21        -0.0646  -12.8006   -4.4010 C.2       1 <0>         0.5026
     32 O2          0.1134  -13.9162   -3.9350 O.2       1 <0>        -0.5083
     33 N3          0.6787  -11.7635   -3.9223 N.am      1 <0>        -0.6708
     34 C22         0.4781  -10.4283   -4.5328 C.3       1 <0>         0.0979
     35 H6          0.0872  -10.5167   -5.5422 H         1 <0>         0.1218
     36 C23         1.8226   -9.7400   -4.5739 C.2       1 <0>         0.5111
     37 O3          2.8053  -10.3043   -4.1380 O.2       1 <0>        -0.5158
     38 N4          1.9234   -8.4897   -5.1039 N.am      1 <0>        -0.7081
     39 C24        -0.4816   -9.6049   -3.6679 C.3       1 <0>        -0.1704
     40 O4          2.2321   -5.8310   -4.2815 O.3       1 <0>        -0.5537
     41 H7          2.2250    1.2777   -9.8615 H         1 <0>         0.0547
     42 H8          3.9602    1.3524  -10.2511 H         1 <0>         0.0553
     43 H9          2.7695    1.0652  -11.5427 H         1 <0>         0.0572
     44 H10         2.1809   -1.1136  -10.5157 H         1 <0>         0.0641
     45 H11         3.9161   -1.0390  -10.9053 H         1 <0>         0.0650
     46 H12         4.4173   -0.4250   -8.5558 H         1 <0>         0.0691
     47 H13         2.6821   -0.4997   -8.1661 H         1 <0>         0.0686
     48 H14         2.6381   -2.8911   -8.8203 H         1 <0>         0.0659
     49 H15         4.3733   -2.8164   -9.2100 H         1 <0>         0.0672
     50 H16         4.0190   -1.9289   -6.5523 H         1 <0>         0.3991
     51 H17         6.5325   -3.9938   -5.5169 H         1 <0>         0.0627
     52 H18         5.6762   -2.4684   -5.1878 H         1 <0>         0.0618
     53 H19         5.9309   -3.6465   -3.8780 H         1 <0>         0.0685
     54 H20         5.2191   -6.1327   -5.7786 H         1 <0>         0.0895
     55 H21         4.8743   -5.8974   -4.0483 H         1 <0>         0.0742
     56 H22         5.1756   -8.2557   -5.9770 H         1 <0>         0.0972
     57 H23         3.9715   -9.5418   -6.2223 H         1 <0>         0.0921
     58 H24         3.5694   -8.7281   -9.9387 H         1 <0>         0.1206
     59 H25         4.5640   -9.6773   -8.8086 H         1 <0>         0.0922
     60 H26         1.6487   -9.6378   -8.0187 H         1 <0>         0.1194
     61 H27         3.2354  -11.5732   -9.7354 H         1 <0>         0.1274
     62 H28         0.3262  -11.6095   -9.1695 H         1 <0>         0.0947
     63 H29         1.3578  -13.0456   -9.3698 H         1 <0>         0.0988
     64 H30        -0.0042  -14.9345   -7.7811 H         1 <0>         0.1024
     65 H31         0.0638  -14.9826   -6.0036 H         1 <0>         0.1032
     66 H32        -2.2250  -15.4624   -7.8225 H         1 <0>         0.1151
     67 H33        -1.9848  -15.9873   -6.1376 H         1 <0>         0.0996
     68 H34        -2.9784  -13.2801   -7.1294 H         1 <0>         0.1336
     69 H35        -3.8337  -14.4479   -6.0995 H         1 <0>         0.1444
     70 H36        -2.9792  -12.7850   -4.7313 H         1 <0>         0.4357
     71 H37         1.3238  -11.8963   -3.1954 H         1 <0>         0.4366
     72 H38         1.1654   -8.0274   -5.4949 H         1 <0>         0.4139
     73 H39        -0.0603   -9.4864   -2.6696 H         1 <0>         0.0802
     74 H40        -0.6269   -8.6236   -4.1197 H         1 <0>         0.0900
     75 H41        -1.4404  -10.1187   -3.5990 H         1 <0>         0.0673
     76 H42         2.4980   -5.9815   -3.3641 H         1 <0>         0.3725
     77 H43        -2.0426  -14.1118   -4.4790 H         1 <0>         0.4361
@<TRIPOS>BOND
     1    1    2 1
     2    1   41 1
     3    1   42 1
     4    1   43 1
     5    2    3 1
     6    2   44 1
     7    2   45 1
     8    3    4 1
     9    3   46 1
    10    3   47 1
    11    4    5 1
    12    4   48 1
    13    4   49 1
    14    5    6 am
    15    5   50 1
    16    6    7 2
    17    6    8 1
    18    8    9 1
    19    8   10 1
    20    8   11 1
    21   10   51 1
    22   10   52 1
    23   10   53 1
    24   11   12 1
    25   11   54 1
    26   11   55 1
    27   12   13 1
    28   12   14 1
    29   12   40 1
    30   14   15 1
    31   14   38 1
    32   14   16 1
    33   16   17 1
    34   16   56 1
    35   16   57 1
    36   17   18 1
    37   18   19 1
    38   18   58 1
    39   18   59 1
    40   19   20 2
    41   19   60 1
    42   20   21 1
    43   20   61 1
    44   21   22 1
    45   21   62 1
    46   21   63 1
    47   22   23 1
    48   23   24 1
    49   23   29 1
    50   23   25 1
    51   25   26 1
    52   25   64 1
    53   25   65 1
    54   26   27 1
    55   26   66 1
    56   26   67 1
    57   27   28 1
    58   27   68 1
    59   27   69 1
    60   28   29 1
    61   28   70 1
    62   28   77 1
    63   29   30 1
    64   29   31 1
    65   31   32 2
    66   31   33 am
    67   33   34 1
    68   33   71 1
    69   34   35 1
    70   34   36 1
    71   34   39 1
    72   36   37 2
    73   36   38 am
    74   38   72 1
    75   39   73 1
    76   39   74 1
    77   39   75 1
    78   40   76 1
@<TRIPOS>MOLECULE
CHEMBL210240__1
   76    77     0     0     0
SMALL
USER_CHARGES

@<TRIPOS>ATOM
      1 C1        -10.6152    0.6132    2.6500 C.3       1 <0>        -0.1535
      2 C2        -10.4370   -0.8918    2.4401 C.3       1 <0>        -0.1217
      3 C3         -9.3320   -1.1358    1.4104 C.3       1 <0>        -0.1325
      4 C4         -9.1539   -2.6409    1.2004 C.3       1 <0>         0.1202
      5 N1         -8.0958   -2.8745    0.2145 N.am      1 <0>        -0.7340
      6 C5         -7.7630   -4.1340   -0.1312 C.2       1 <0>         0.5098
      7 O1         -8.3394   -5.0739    0.3739 O.2       1 <0>        -0.5118
      8 C6         -6.6745   -4.3743   -1.1454 C.3       1 <0>        -0.1062
      9 H1         -5.7401   -3.9447   -0.7843 H         1 <0>         0.1034
     10 C7         -7.0592   -3.7163   -2.4720 C.3       1 <0>        -0.1455
     11 C8         -6.4964   -5.8793   -1.3554 C.3       1 <0>        -0.1318
     12 C9         -5.9520   -6.5122   -0.0732 C.3       1 <0>         0.0871
     13 H2         -6.6402   -6.3166    0.7491 H         1 <0>         0.1417
     14 C10        -5.8096   -8.0226   -0.2706 C.3       1 <0>         0.1343
     15 H3         -5.2010   -8.2191   -1.1536 H         1 <0>         0.0938
     16 C11        -7.1922   -8.6511   -0.4500 C.3       1 <0>        -0.1162
     17 S1         -8.3452   -7.9307    0.7511 S.3       1 <0>        -0.1713
     18 C12        -9.2954   -9.3534    1.3542 C.3       1 <0>        -0.0912
     19 C13        -8.4196  -10.2048    2.2368 C.2       1 <0>        -0.1215
     20 C14        -8.7930  -11.4203    2.5515 C.2       1 <0>        -0.1502
     21 C15        -7.9210  -12.2729    3.4359 C.3       1 <0>        -0.0594
     22 S2         -6.3369  -12.5856    2.6081 S.3       1 <0>        -0.2257
     23 C16        -5.2622  -13.1856    3.9412 C.3       1 <0>        -0.0651
     24 H4         -5.6232  -12.7867    4.8932 H         1 <0>         0.0982
     25 C17        -5.3178  -14.7146    3.9896 C.3       1 <0>        -0.1068
     26 C18        -4.5782  -15.1847    5.2477 C.3       1 <0>        -0.1142
     27 C19        -3.6515  -14.0582    5.7100 C.3       1 <0>         0.0133
     28 N2         -2.8974  -13.5581    4.5245 N.3       1 <0>        -0.5786
     29 C20        -3.8292  -12.7221    3.7067 C.3       1 <0>         0.0486
     30 H5         -3.7090  -11.6904    4.0185 H         1 <0>         0.0839
     31 C21        -3.4490  -12.9009    2.2643 C.2       1 <0>         0.5288
     32 O2         -3.1276  -14.0114    1.8666 O.2       1 <0>        -0.5092
     33 N3         -3.4480  -11.8602    1.3847 N.am      1 <0>        -0.7069
     34 C22        -3.9098  -10.5410    1.8794 C.3       1 <0>         0.1141
     35 H6         -4.5741  -10.6583    2.7304 H         1 <0>         0.1199
     36 C23        -4.6507   -9.8702    0.7471 C.2       1 <0>         0.5141
     37 O3         -4.7885  -10.4490   -0.3116 O.2       1 <0>        -0.5216
     38 N4         -5.1633   -8.6203    0.9191 N.am      1 <0>        -0.7148
     39 C24        -2.7014   -9.6845    2.2697 C.3       1 <0>        -0.1664
     40 O4         -4.6743   -5.9491    0.2307 O.3       1 <0>        -0.5538
     41 H7        -11.4024    0.7871    3.3836 H         1 <0>         0.0563
     42 H8         -9.6808    1.0428    3.0112 H         1 <0>         0.0544
     43 H9        -10.8892    1.0820    1.7049 H         1 <0>         0.0544
     44 H10       -10.1630   -1.3606    3.3852 H         1 <0>         0.0649
     45 H11       -11.3715   -1.3214    2.0789 H         1 <0>         0.0648
     46 H12        -9.6061   -0.6671    0.4653 H         1 <0>         0.0679
     47 H13        -8.3976   -0.7062    1.7715 H         1 <0>         0.0682
     48 H14        -8.8798   -3.1096    2.1455 H         1 <0>         0.0664
     49 H15       -10.0883   -3.0704    0.8393 H         1 <0>         0.0664
     50 H16        -7.6347   -2.1228   -0.1895 H         1 <0>         0.3978
     51 H17        -7.9454   -4.2053   -2.8766 H         1 <0>         0.0618
     52 H18        -7.2710   -2.6601   -2.3057 H         1 <0>         0.0599
     53 H19        -6.2353   -3.8148   -3.1788 H         1 <0>         0.0676
     54 H20        -7.4586   -6.3282   -1.6019 H         1 <0>         0.0887
     55 H21        -5.7951   -6.0518   -2.1718 H         1 <0>         0.0731
     56 H22        -7.5521   -8.4564   -1.4606 H         1 <0>         0.0926
     57 H23        -7.1280   -9.7274   -0.2907 H         1 <0>         0.0957
     58 H24       -10.1541   -9.0011    1.9255 H         1 <0>         0.1151
     59 H25        -9.6408   -9.9452    0.5064 H         1 <0>         0.0882
     60 H26        -7.4847   -9.8131    2.6093 H         1 <0>         0.1205
     61 H27        -9.7282  -11.8108    2.1776 H         1 <0>         0.1202
     62 H28        -7.7417  -11.7543    4.3781 H         1 <0>         0.0879
     63 H29        -8.4203  -13.2215    3.6340 H         1 <0>         0.0893
     64 H30        -6.3557  -15.0417    4.0330 H         1 <0>         0.0685
     65 H31        -4.8367  -15.1293    3.1060 H         1 <0>         0.0911
     66 H32        -5.2995  -15.4137    6.0308 H         1 <0>         0.0670
     67 H33        -3.9913  -16.0722    5.0150 H         1 <0>         0.0775
     68 H34        -4.2227  -13.2424    6.1348 H         1 <0>         0.0476
     69 H35        -2.9347  -14.4418    6.4321 H         1 <0>         0.0874
     70 H36        -2.2763  -12.8099    4.9663 H         1 <0>         0.3206
     71 H37        -3.1501  -11.9783    0.4584 H         1 <0>         0.4163
     72 H38        -5.1152   -8.1474    1.7646 H         1 <0>         0.4123
     73 H39        -2.0619   -9.5403    1.3990 H         1 <0>         0.0694
     74 H40        -3.0448   -8.7158    2.6328 H         1 <0>         0.0767
     75 H41        -2.1378  -10.1880    3.0552 H         1 <0>         0.0705
     76 H42        -4.0103   -6.0853   -0.4589 H         1 <0>         0.3713
@<TRIPOS>BOND
     1    1    2 1
     2    1   41 1
     3    1   42 1
     4    1   43 1
     5    2    3 1
     6    2   44 1
     7    2   45 1
     8    3    4 1
     9    3   46 1
    10    3   47 1
    11    4    5 1
    12    4   48 1
    13    4   49 1
    14    5    6 am
    15    5   50 1
    16    6    7 2
    17    6    8 1
    18    8    9 1
    19    8   10 1
    20    8   11 1
    21   10   51 1
    22   10   52 1
    23   10   53 1
    24   11   12 1
    25   11   54 1
    26   11   55 1
    27   12   13 1
    28   12   14 1
    29   12   40 1
    30   14   15 1
    31   14   38 1
    32   14   16 1
    33   16   17 1
    34   16   56 1
    35   16   57 1
    36   17   18 1
    37   18   19 1
    38   18   58 1
    39   18   59 1
    40   19   20 2
    41   19   60 1
    42   20   21 1
    43   20   61 1
    44   21   22 1
    45   21   62 1
    46   21   63 1
    47   22   23 1
    48   23   24 1
    49   23   29 1
    50   23   25 1
    51   25   26 1
    52   25   64 1
    53   25   65 1
    54   26   27 1
    55   26   66 1
    56   26   67 1
    57   27   28 1
    58   27   68 1
    59   27   69 1
    60   28   29 1
    61   28   70 1
    62   29   30 1
    63   29   31 1
    64   31   32 2
    65   31   33 am
    66   33   34 1
    67   33   71 1
    68   34   35 1
    69   34   36 1
    70   34   39 1
    71   36   37 2
    72   36   38 am
    73   38   72 1
    74   39   73 1
    75   39   74 1
    76   39   75 1
    77   40   76 1
@<TRIPOS>MOLECULE
CHEMBL402171
   77    80     0     0     0
SMALL
USER_CHARGES

@<TRIPOS>ATOM
      1 C1         -0.0608    1.5247    0.0349 C.3       1 <0>        -0.1680
      2 C2         -0.0243   -0.0048    0.0173 C.3       1 <0>         0.1216
      3 N1          0.6843   -0.4900    1.2042 N.pl3     1 <0>        -0.7461
      4 C3          0.8459   -1.8626    1.4088 C.ar      1 <0>         0.2382
      5 C4          0.3399   -2.7652    0.4848 C.ar      1 <0>        -0.1946
      6 C5          0.5022   -4.1352    0.6899 C.ar      1 <0>        -0.0650
      7 C6          1.1731   -4.5928    1.8243 C.ar      1 <0>        -0.1519
      8 C7          1.6762   -3.6851    2.7437 C.ar      1 <0>         0.2101
      9 C8          1.5176   -2.3217    2.5340 C.ar      1 <0>        -0.2104
     10 N2          2.3489   -4.1435    3.8821 N.am      1 <0>        -0.5619
     11 C9          3.0170   -3.2723    4.8561 C.3       1 <0>         0.0941
     12 C10         3.2210   -4.1429    6.1158 C.3       1 <0>        -0.1324
     13 C11         3.2453   -5.5672    5.5142 C.3       1 <0>        -0.1544
     14 C12         2.4612   -5.4378    4.2269 C.2       1 <0>         0.5150
     15 O1          2.0029   -6.3670    3.5964 O.2       1 <0>        -0.4974
     16 C13        -0.0361   -5.1005   -0.2926 C.2       1 <0>         0.5639
     17 O2          0.1061   -6.2941   -0.1125 O.2       1 <0>        -0.4960
     18 N3         -0.6843   -4.6567   -1.3877 N.am      1 <0>        -0.7254
     19 C14        -1.2176   -5.6131   -2.3610 C.3       1 <0>         0.1272
     20 H1         -0.5493   -6.4713   -2.4308 H         1 <0>         0.1090
     21 C15        -2.6029   -6.0806   -1.9103 C.3       1 <0>        -0.1009
     22 C16        -2.4782   -6.8513   -0.6213 C.ar      1 <0>        -0.0801
     23 C17        -2.2747   -8.2183   -0.6503 C.ar      1 <0>        -0.1074
     24 C18        -2.1603   -8.9253    0.5321 C.ar      1 <0>        -0.1113
     25 C19        -2.2489   -8.2652    1.7434 C.ar      1 <0>        -0.1076
     26 C20        -2.4514   -6.8981    1.7724 C.ar      1 <0>        -0.1058
     27 C21        -2.5615   -6.1905    0.5900 C.ar      1 <0>        -0.1047
     28 C22        -1.3272   -4.9395   -3.7304 C.3       1 <0>         0.0755
     29 H2         -0.3578   -4.5281   -4.0116 H         1 <0>         0.1318
     30 C23        -1.7652   -5.9707   -4.7724 C.3       1 <0>        -0.0473
     31 N4         -1.7550   -5.3543   -6.1058 N.4       1 <0>        -0.5048
     32 C24        -2.1756   -6.3443   -7.1062 C.3       1 <0>         0.0889
     33 C25        -2.1651   -5.7120   -8.4740 C.2       1 <0>        -0.3276
     34 C26        -3.2341   -5.0439   -9.0800 C.2       1 <0>         0.0701
     35 N5         -2.8445   -4.6352  -10.2603 N.2       1 <0>        -0.2700
     36 N6         -1.5131   -5.0309  -10.4429 N.pl3     1 <0>        -0.3486
     37 C27        -1.1179   -5.6850   -9.3306 C.2       1 <0>         0.1042
     38 C28        -0.6929   -4.7747  -11.6294 C.3       1 <0>         0.1190
     39 C29        -1.4106   -5.3088  -12.8706 C.3       1 <0>        -0.1702
     40 O3         -2.2914   -3.8867   -3.6676 O.3       1 <0>        -0.5502
     41 H3          0.9579    1.9124    0.0336 H         1 <0>         0.0633
     42 H4         -0.5880    1.8857   -0.8482 H         1 <0>         0.0745
     43 H5         -0.5782    1.8655    0.9316 H         1 <0>         0.0639
     44 H6         -1.0430   -0.3926    0.0185 H         1 <0>         0.0591
     45 H7          0.4931   -0.3456   -0.8795 H         1 <0>         0.0578
     46 H8          1.0413    0.1416    1.8479 H         1 <0>         0.4026
     47 H9         -0.1792   -2.4075   -0.3921 H         1 <0>         0.1212
     48 H10         1.3002   -5.6530    1.9863 H         1 <0>         0.1669
     49 H11         1.9141   -1.6168    3.2497 H         1 <0>         0.1292
     50 H12         3.9795   -2.9402    4.4672 H         1 <0>         0.0840
     51 H13         2.3869   -2.4139    5.0889 H         1 <0>         0.0878
     52 H14         4.1678   -3.9089    6.6026 H         1 <0>         0.0995
     53 H15         2.3883   -4.0266    6.8095 H         1 <0>         0.0878
     54 H16         4.2701   -5.8783    5.3115 H         1 <0>         0.1123
     55 H17         2.7570   -6.2733    6.1858 H         1 <0>         0.1101
     56 H18        -0.7978   -3.7042   -1.5315 H         1 <0>         0.4046
     57 H19        -3.2460   -5.2144   -1.7549 H         1 <0>         0.0809
     58 H20        -3.0370   -6.7225   -2.6769 H         1 <0>         0.0792
     59 H21        -2.2055   -8.7340   -1.5966 H         1 <0>         0.1115
     60 H22        -2.0021   -9.9934    0.5095 H         1 <0>         0.1189
     61 H23        -2.1602   -8.8176    2.6672 H         1 <0>         0.1192
     62 H24        -2.5210   -6.3824    2.7188 H         1 <0>         0.1159
     63 H25        -2.7161   -5.1218    0.6126 H         1 <0>         0.1092
     64 H26        -1.0778   -6.8165   -4.7578 H         1 <0>         0.1470
     65 H27        -2.7723   -6.3169   -4.5399 H         1 <0>         0.1417
     66 H28        -2.3913   -4.5713   -6.1192 H         1 <0>         0.4312
     67 H29        -1.4882   -7.1901   -7.0916 H         1 <0>         0.1340
     68 H30        -3.1826   -6.6906   -6.8737 H         1 <0>         0.1373
     69 H31        -4.2123   -4.8918   -8.6483 H         1 <0>         0.1921
     70 H32        -0.1416   -6.1126   -9.1565 H         1 <0>         0.1848
     71 H33        -0.5329   -3.7017  -11.7358 H         1 <0>         0.0975
     72 H34         0.2687   -5.2765  -11.5216 H         1 <0>         0.1055
     73 H35        -1.5705   -6.3818  -12.7642 H         1 <0>         0.0636
     74 H36        -2.3722   -4.8070  -12.9784 H         1 <0>         0.0745
     75 H37        -0.8003   -5.1182  -13.7534 H         1 <0>         0.0861
     76 H38        -3.1794   -4.1807   -3.4223 H         1 <0>         0.3914
     77 H39        -0.8228   -5.0337   -6.3210 H         1 <0>         0.4253
@<TRIPOS>BOND
     1    1    2 1
     2    1   41 1
     3    1   42 1
     4    1   43 1
     5    2    3 1
     6    2   44 1
     7    2   45 1
     8    3    4 1
     9    3   46 1
    10    4    9 ar
    11    4    5 ar
    12    5    6 ar
    13    5   47 1
    14    6    7 ar
    15    6   16 1
    16    7    8 ar
    17    7   48 1
    18    8    9 ar
    19    8   10 1
    20    9   49 1
    21   10   14 am
    22   10   11 1
    23   11   12 1
    24   11   50 1
    25   11   51 1
    26   12   13 1
    27   12   52 1
    28   12   53 1
    29   13   14 1
    30   13   54 1
    31   13   55 1
    32   14   15 2
    33   16   17 2
    34   16   18 am
    35   18   19 1
    36   18   56 1
    37   19   20 1
    38   19   21 1
    39   19   28 1
    40   21   22 1
    41   21   57 1
    42   21   58 1
    43   22   27 ar
    44   22   23 ar
    45   23   24 ar
    46   23   59 1
    47   24   25 ar
    48   24   60 1
    49   25   26 ar
    50   25   61 1
    51   26   27 ar
    52   26   62 1
    53   27   63 1
    54   28   29 1
    55   28   30 1
    56   28   40 1
    57   30   31 1
    58   30   64 1
    59   30   65 1
    60   31   32 1
    61   31   66 1
    62   31   77 1
    63   32   33 1
    64   32   67 1
    65   32   68 1
    66   33   37 2
    67   33   34 1
    68   34   35 2
    69   34   69 1
    70   35   36 1
    71   36   37 1
    72   36   38 1
    73   37   70 1
    74   38   39 1
    75   38   71 1
    76   38   72 1
    77   39   73 1
    78   39   74 1
    79   39   75 1
    80   40   76 1
@<TRIPOS>MOLECULE
CHEMBL402171__1
   76    79     0     0     0
SMALL
USER_CHARGES

@<TRIPOS>ATOM
      1 C1         -0.0608    1.5247    0.0349 C.3       1 <0>        -0.1655
      2 C2         -0.0243   -0.0048    0.0173 C.3       1 <0>         0.1188
      3 N1          0.6843   -0.4900    1.2042 N.pl3     1 <0>        -0.7467
      4 C3          0.8459   -1.8626    1.4088 C.ar      1 <0>         0.2360
      5 C4          0.3399   -2.7652    0.4848 C.ar      1 <0>        -0.1909
      6 C5          0.5022   -4.1352    0.6899 C.ar      1 <0>        -0.0577
      7 C6          1.1731   -4.5928    1.8243 C.ar      1 <0>        -0.1528
      8 C7          1.6762   -3.6851    2.7437 C.ar      1 <0>         0.2047
      9 C8          1.5176   -2.3217    2.5340 C.ar      1 <0>        -0.2142
     10 N2          2.3489   -4.1435    3.8821 N.am      1 <0>        -0.5610
     11 C9          3.0170   -3.2723    4.8561 C.3       1 <0>         0.0951
     12 C10         3.2210   -4.1429    6.1158 C.3       1 <0>        -0.1319
     13 C11         3.2453   -5.5672    5.5142 C.3       1 <0>        -0.1538
     14 C12         2.4612   -5.4378    4.2269 C.2       1 <0>         0.5123
     15 O1          2.0029   -6.3670    3.5964 O.2       1 <0>        -0.4952
     16 C13        -0.0361   -5.1005   -0.2926 C.2       1 <0>         0.5578
     17 O2          0.1061   -6.2941   -0.1125 O.2       1 <0>        -0.5042
     18 N3         -0.6843   -4.6567   -1.3877 N.am      1 <0>        -0.7193
     19 C14        -1.2176   -5.6131   -2.3610 C.3       1 <0>         0.1241
     20 H1         -0.5493   -6.4713   -2.4308 H         1 <0>         0.1000
     21 C15        -2.6029   -6.0806   -1.9103 C.3       1 <0>        -0.1001
     22 C16        -2.4782   -6.8513   -0.6213 C.ar      1 <0>        -0.0660
     23 C17        -2.2747   -8.2183   -0.6503 C.ar      1 <0>        -0.1075
     24 C18        -2.1603   -8.9253    0.5321 C.ar      1 <0>        -0.1128
     25 C19        -2.2489   -8.2652    1.7434 C.ar      1 <0>        -0.1165
     26 C20        -2.4514   -6.8981    1.7724 C.ar      1 <0>        -0.1087
     27 C21        -2.5615   -6.1905    0.5900 C.ar      1 <0>        -0.1071
     28 C22        -1.3272   -4.9395   -3.7304 C.3       1 <0>         0.1030
     29 H2         -0.3578   -4.5281   -4.0116 H         1 <0>         0.1165
     30 C23        -1.7652   -5.9707   -4.7724 C.3       1 <0>         0.0283
     31 N4         -1.7550   -5.3543   -6.1058 N.3       1 <0>        -0.6817
     32 C24        -2.1712   -6.3172   -7.1341 C.3       1 <0>         0.1395
     33 C25        -2.1484   -5.6503   -8.4853 C.2       1 <0>        -0.2414
     34 C26        -3.2107   -4.9636   -9.0821 C.2       1 <0>         0.0523
     35 N5         -2.8109   -4.5263  -10.2486 N.2       1 <0>        -0.2942
     36 N6         -1.4795   -4.9217  -10.4313 N.pl3     1 <0>        -0.3717
     37 C27        -1.0947   -5.6051   -9.3332 C.2       1 <0>         0.0770
     38 C28        -0.6495   -4.6382  -11.6048 C.3       1 <0>         0.1291
     39 C29        -1.3595   -5.1383  -12.8645 C.3       1 <0>        -0.1658
     40 O3         -2.2914   -3.8867   -3.6676 O.3       1 <0>        -0.5558
     41 H3          0.9579    1.9124    0.0336 H         1 <0>         0.0615
     42 H4         -0.5880    1.8857   -0.8482 H         1 <0>         0.0747
     43 H5         -0.5782    1.8655    0.9316 H         1 <0>         0.0614
     44 H6         -1.0430   -0.3926    0.0185 H         1 <0>         0.0607
     45 H7          0.4931   -0.3456   -0.8795 H         1 <0>         0.0610
     46 H8          1.0413    0.1416    1.8479 H         1 <0>         0.3999
     47 H9         -0.1792   -2.4075   -0.3921 H         1 <0>         0.1242
     48 H10         1.3002   -5.6530    1.9863 H         1 <0>         0.1662
     49 H11         1.9141   -1.6168    3.2497 H         1 <0>         0.1262
     50 H12         3.9795   -2.9402    4.4672 H         1 <0>         0.0823
     51 H13         2.3869   -2.4139    5.0889 H         1 <0>         0.0866
     52 H14         4.1678   -3.9089    6.6026 H         1 <0>         0.0973
     53 H15         2.3883   -4.0266    6.8095 H         1 <0>         0.0864
     54 H16         4.2701   -5.8783    5.3115 H         1 <0>         0.1106
     55 H17         2.7570   -6.2733    6.1858 H         1 <0>         0.1082
     56 H18        -0.7978   -3.7042   -1.5315 H         1 <0>         0.4019
     57 H19        -3.2460   -5.2144   -1.7549 H         1 <0>         0.0753
     58 H20        -3.0370   -6.7225   -2.6769 H         1 <0>         0.0830
     59 H21        -2.2055   -8.7340   -1.5966 H         1 <0>         0.1130
     60 H22        -2.0021   -9.9934    0.5095 H         1 <0>         0.1156
     61 H23        -2.1602   -8.8176    2.6672 H         1 <0>         0.1146
     62 H24        -2.5210   -6.3824    2.7188 H         1 <0>         0.1118
     63 H25        -2.7161   -5.1218    0.6126 H         1 <0>         0.1079
     64 H26        -1.0778   -6.8165   -4.7578 H         1 <0>         0.0845
     65 H27        -2.7723   -6.3169   -4.5399 H         1 <0>         0.0390
     66 H28        -2.3353   -4.5291   -6.1271 H         1 <0>         0.3488
     67 H29        -1.4866   -7.1654   -7.1359 H         1 <0>         0.0758
     68 H30        -3.1810   -6.6658   -6.9180 H         1 <0>         0.0374
     69 H31        -4.1916   -4.8191   -8.6539 H         1 <0>         0.1788
     70 H32        -0.1211   -6.0403   -9.1627 H         1 <0>         0.1725
     71 H33        -0.4853   -3.5635  -11.6827 H         1 <0>         0.0850
     72 H34         0.3097   -5.1458  -11.5026 H         1 <0>         0.0961
     73 H35        -0.7420   -4.9274  -13.7376 H         1 <0>         0.0758
     74 H36        -1.5237   -6.2130  -12.7866 H         1 <0>         0.0602
     75 H37        -2.3187   -4.6307  -12.9667 H         1 <0>         0.0705
     76 H38        -3.1794   -4.1807   -3.4223 H         1 <0>         0.3732
@<TRIPOS>BOND
     1    1    2 1
     2    1   41 1
     3    1   42 1
     4    1   43 1
     5    2    3 1
     6    2   44 1
     7    2   45 1
     8    3    4 1
     9    3   46 1
    10    4    9 ar
    11    4    5 ar
    12    5    6 ar
    13    5   47 1
    14    6    7 ar
    15    6   16 1
    16    7    8 ar
    17    7   48 1
    18    8    9 ar
    19    8   10 1
    20    9   49 1
    21   10   14 am
    22   10   11 1
    23   11   12 1
    24   11   50 1
    25   11   51 1
    26   12   13 1
    27   12   52 1
    28   12   53 1
    29   13   14 1
    30   13   54 1
    31   13   55 1
    32   14   15 2
    33   16   17 2
    34   16   18 am
    35   18   19 1
    36   18   56 1
    37   19   20 1
    38   19   21 1
    39   19   28 1
    40   21   22 1
    41   21   57 1
    42   21   58 1
    43   22   27 ar
    44   22   23 ar
    45   23   24 ar
    46   23   59 1
    47   24   25 ar
    48   24   60 1
    49   25   26 ar
    50   25   61 1
    51   26   27 ar
    52   26   62 1
    53   27   63 1
    54   28   29 1
    55   28   30 1
    56   28   40 1
    57   30   31 1
    58   30   64 1
    59   30   65 1
    60   31   32 1
    61   31   66 1
    62   32   33 1
    63   32   67 1
    64   32   68 1
    65   33   37 2
    66   33   34 1
    67   34   35 2
    68   34   69 1
    69   35   36 1
    70   36   37 1
    71   36   38 1
    72   37   70 1
    73   38   39 1
    74   38   71 1
    75   38   72 1
    76   39   73 1
    77   39   74 1
    78   39   75 1
    79   40   76 1
@<TRIPOS>MOLECULE
CHEMBL553938
   76    80     0     0     0
SMALL
USER_CHARGES

@<TRIPOS>ATOM
      1 C1         -0.0187    1.5258    0.0104 C.3       1 <0>        -0.1424
      2 C2          0.0021   -0.0041    0.0020 C.3       1 <0>        -0.0446
      3 C3          0.7309   -0.5033    1.2229 C.2       1 <0>        -0.1602
      4 C4          2.0283   -0.8364    1.3022 C.2       1 <0>         0.0399
      5 N1          2.3142   -1.1505    2.6125 N.pl3     1 <0>        -0.5011
      6 C5          1.1496   -1.4841    3.2459 C.ar      1 <0>         0.0772
      7 C6          0.1654   -0.7129    2.5512 C.ar      1 <0>        -0.0924
      8 C7         -0.9733   -0.3137    3.2395 C.ar      1 <0>        -0.0831
      9 C8         -1.3015   -0.9441    4.4383 C.ar      1 <0>        -0.1373
     10 C9         -0.5152   -2.0186    4.8777 C.ar      1 <0>        -0.1413
     11 C10         0.6458   -2.3617    4.1889 C.ar      1 <0>         0.2554
     12 N2          1.1406   -3.6511    4.3643 N.2       1 <0>        -1.0777
     13 S1          2.5401   -4.0075    5.1439 S.o2      1 <0>         2.5339
     14 O1          2.4524   -3.3163    6.3824 O.2       1 <0>        -1.0299
     15 O2          2.6245   -5.4255    5.1094 O.2       1 <0>        -0.9985
     16 C11         3.8467   -3.2729    4.1045 C.3       1 <0>        -0.6635
     17 C12         3.8907   -1.7774    4.4437 C.3       1 <0>        -0.1175
     18 C13         3.6429   -0.9309    3.1978 C.3       1 <0>         0.1328
     19 C14        -2.4589   -0.4872    5.2335 C.2       1 <0>         0.5723
     20 O3         -3.1340    0.4457    4.8437 O.2       1 <0>        -0.5349
     21 N3         -2.7669   -1.1045    6.3913 N.am      1 <0>        -0.7256
     22 C15        -3.9151   -0.6513    7.1802 C.3       1 <0>         0.1284
     23 H1         -4.0099    0.4312    7.0950 H         1 <0>         0.0979
     24 C16        -5.1888   -1.3176    6.6563 C.3       1 <0>        -0.1020
     25 C17        -5.4602   -0.8471    5.2506 C.ar      1 <0>        -0.0613
     26 C18        -6.2316    0.2797    5.0358 C.ar      1 <0>        -0.1092
     27 C19        -6.4805    0.7114    3.7464 C.ar      1 <0>        -0.1180
     28 C20        -5.9577    0.0165    2.6718 C.ar      1 <0>        -0.1216
     29 C21        -5.1855   -1.1098    2.8867 C.ar      1 <0>        -0.1073
     30 C22        -4.9330   -1.5389    4.1762 C.ar      1 <0>        -0.0984
     31 C23        -3.7074   -1.0310    8.6477 C.3       1 <0>         0.0890
     32 H2         -2.7555   -0.6299    8.9957 H         1 <0>         0.1147
     33 C24        -4.8444   -0.4500    9.4907 C.3       1 <0>         0.0968
     34 N4         -4.5837   -0.7110   10.9085 N.pl3     1 <0>        -0.7424
     35 C25        -5.4907   -0.2711   11.8792 C.ar      1 <0>         0.1883
     36 C26        -6.6407    0.4077   11.4986 C.ar      1 <0>        -0.1604
     37 C27        -7.5355    0.8410   12.4572 C.ar      1 <0>        -0.1013
     38 C28        -7.2857    0.5983   13.7998 C.ar      1 <0>         0.0632
     39 C29        -6.1370   -0.0793   14.1809 C.ar      1 <0>        -0.1570
     40 C30        -5.2440   -0.5183   13.2232 C.ar      1 <0>        -0.1573
     41 O4         -8.1674    1.0254   14.7432 O.3       1 <0>        -0.3234
     42 C31        -7.8470    0.7413   16.1065 C.3       1 <0>         0.0299
     43 O5         -3.6996   -2.4544    8.7749 O.3       1 <0>        -0.5491
     44 H3          1.0039    1.9031    0.0027 H         1 <0>         0.0495
     45 H4         -0.5459    1.8868   -0.8726 H         1 <0>         0.0484
     46 H5         -0.5289    1.8773    0.9072 H         1 <0>         0.0552
     47 H6         -1.0205   -0.3814    0.0098 H         1 <0>         0.0652
     48 H7          0.5123   -0.3556   -0.8948 H         1 <0>         0.0615
     49 H8          2.7280   -0.8555    0.4798 H         1 <0>         0.1559
     50 H9         -1.5974    0.4770    2.8499 H         1 <0>         0.1167
     51 H10        -0.8114   -2.5841    5.7489 H         1 <0>         0.1150
     52 H11         4.8075   -3.7351    4.3312 H         1 <0>         0.0998
     53 H12         3.6054   -3.4093    3.0504 H         1 <0>         0.1152
     54 H13         3.1242   -1.5554    5.1863 H         1 <0>         0.0838
     55 H14         4.8696   -1.5317    4.8553 H         1 <0>         0.0833
     56 H15         4.3997   -1.1739    2.4520 H         1 <0>         0.0740
     57 H16         3.7400    0.1217    3.4634 H         1 <0>         0.0689
     58 H17        -2.2282   -1.8489    6.7023 H         1 <0>         0.4073
     59 H18        -5.0599   -2.4000    6.6586 H         1 <0>         0.0774
     60 H19        -6.0288   -1.0504    7.2975 H         1 <0>         0.0790
     61 H20        -6.6401    0.8226    5.8753 H         1 <0>         0.1101
     62 H21        -7.0838    1.5913    3.5785 H         1 <0>         0.1114
     63 H22        -6.1527    0.3534    1.6644 H         1 <0>         0.1119
     64 H23        -4.7773   -1.6528    2.0471 H         1 <0>         0.1146
     65 H24        -4.3266   -2.4167    4.3442 H         1 <0>         0.1138
     66 H25        -4.9068    0.6255    9.3247 H         1 <0>         0.0707
     67 H26        -5.7860   -0.9173    9.2024 H         1 <0>         0.0672
     68 H27        -3.7825   -1.1887   11.1744 H         1 <0>         0.4043
     69 H28        -6.8352    0.5971   10.4533 H         1 <0>         0.1273
     70 H29        -8.4298    1.3693   12.1614 H         1 <0>         0.1281
     71 H30        -5.9431   -0.2675   15.2265 H         1 <0>         0.1251
     72 H31        -4.3520   -1.0501   13.5198 H         1 <0>         0.1230
     73 H32        -7.7700   -0.3372   16.2445 H         1 <0>         0.0517
     74 H33        -6.8960    1.2090   16.3614 H         1 <0>         0.0517
     75 H34        -8.6307    1.1353   16.7536 H         1 <0>         0.0955
     76 H35        -4.5174   -2.8799    8.4830 H         1 <0>         0.3763
@<TRIPOS>BOND
     1    1    2 1
     2    1   44 1
     3    1   45 1
     4    1   46 1
     5    2    3 1
     6    2   47 1
     7    2   48 1
     8    3    7 1
     9    3    4 2
    10    4    5 1
    11    4   49 1
    12    5   18 1
    13    5    6 1
    14    6   11 ar
    15    6    7 ar
    16    7    8 ar
    17    8    9 ar
    18    8   50 1
    19    9   10 ar
    20    9   19 1
    21   10   11 ar
    22   10   51 1
    23   11   12 1
    24   12   13 1
    25   13   14 2
    26   13   15 2
    27   13   16 1
    28   16   17 1
    29   16   52 1
    30   16   53 1
    31   17   18 1
    32   17   54 1
    33   17   55 1
    34   18   56 1
    35   18   57 1
    36   19   20 2
    37   19   21 am
    38   21   22 1
    39   21   58 1
    40   22   23 1
    41   22   24 1
    42   22   31 1
    43   24   25 1
    44   24   59 1
    45   24   60 1
    46   25   30 ar
    47   25   26 ar
    48   26   27 ar
    49   26   61 1
    50   27   28 ar
    51   27   62 1
    52   28   29 ar
    53   28   63 1
    54   29   30 ar
    55   29   64 1
    56   30   65 1
    57   31   32 1
    58   31   33 1
    59   31   43 1
    60   33   34 1
    61   33   66 1
    62   33   67 1
    63   34   35 1
    64   34   68 1
    65   35   40 ar
    66   35   36 ar
    67   36   37 ar
    68   36   69 1
    69   37   38 ar
    70   37   70 1
    71   38   39 ar
    72   38   41 1
    73   39   40 ar
    74   39   71 1
    75   40   72 1
    76   41   42 1
    77   42   73 1
    78   42   74 1
    79   42   75 1
    80   43   76 1
@<TRIPOS>MOLECULE
CHEMBL553938__1
   77    81     0     0     0
SMALL
USER_CHARGES

@<TRIPOS>ATOM
      1 C1         -0.0187    1.5258    0.0104 C.3       1 <0>        -0.1470
      2 C2          0.0021   -0.0041    0.0020 C.3       1 <0>        -0.0534
      3 C3          0.7309   -0.5033    1.2229 C.2       1 <0>        -0.1351
      4 C4          2.0283   -0.8364    1.3022 C.2       1 <0>         0.0485
      5 N1          2.3142   -1.1505    2.6125 N.pl3     1 <0>        -0.5051
      6 C5          1.1496   -1.4841    3.2459 C.ar      1 <0>         0.1398
      7 C6          0.1654   -0.7129    2.5512 C.ar      1 <0>        -0.1062
      8 C7         -0.9733   -0.3137    3.2395 C.ar      1 <0>        -0.0024
      9 C8         -1.3015   -0.9441    4.4383 C.ar      1 <0>        -0.1552
     10 C9         -0.5152   -2.0186    4.8777 C.ar      1 <0>        -0.0700
     11 C10         0.6458   -2.3617    4.1889 C.ar      1 <0>         0.1251
     12 N2          1.1406   -3.6511    4.3643 N.pl3     1 <0>        -1.0526
     13 S1          2.5404   -4.0074    5.1435 S.o2      1 <0>         2.5959
     14 O1          2.4530   -3.3165    6.3821 O.2       1 <0>        -0.9405
     15 O2          2.6249   -5.4255    5.1086 O.2       1 <0>        -0.9514
     16 C11         3.8466   -3.2725    4.1038 C.3       1 <0>        -0.6266
     17 C12         3.8904   -1.7770    4.4433 C.3       1 <0>        -0.1312
     18 C13         3.6429   -0.9309    3.1978 C.3       1 <0>         0.1230
     19 C14        -2.4589   -0.4872    5.2335 C.2       1 <0>         0.5672
     20 O3         -3.1340    0.4457    4.8437 O.2       1 <0>        -0.5148
     21 N3         -2.7669   -1.1045    6.3913 N.am      1 <0>        -0.7216
     22 C15        -3.9151   -0.6513    7.1802 C.3       1 <0>         0.1272
     23 H1         -4.0099    0.4312    7.0950 H         1 <0>         0.1028
     24 C16        -5.1888   -1.3176    6.6563 C.3       1 <0>        -0.1026
     25 C17        -5.4602   -0.8471    5.2506 C.ar      1 <0>        -0.0646
     26 C18        -6.2316    0.2797    5.0358 C.ar      1 <0>        -0.1062
     27 C19        -6.4805    0.7114    3.7464 C.ar      1 <0>        -0.1129
     28 C20        -5.9577    0.0165    2.6718 C.ar      1 <0>        -0.1192
     29 C21        -5.1855   -1.1098    2.8867 C.ar      1 <0>        -0.1116
     30 C22        -4.9330   -1.5389    4.1762 C.ar      1 <0>        -0.1065
     31 C23        -3.7074   -1.0310    8.6477 C.3       1 <0>         0.0897
     32 H2         -2.7555   -0.6299    8.9957 H         1 <0>         0.1150
     33 C24        -4.8444   -0.4500    9.4907 C.3       1 <0>         0.0973
     34 N4         -4.5837   -0.7110   10.9085 N.pl3     1 <0>        -0.7448
     35 C25        -5.4907   -0.2711   11.8792 C.ar      1 <0>         0.1827
     36 C26        -6.6407    0.4077   11.4986 C.ar      1 <0>        -0.1586
     37 C27        -7.5355    0.8410   12.4572 C.ar      1 <0>        -0.1026
     38 C28        -7.2857    0.5983   13.7998 C.ar      1 <0>         0.0696
     39 C29        -6.1370   -0.0793   14.1809 C.ar      1 <0>        -0.1579
     40 C30        -5.2440   -0.5183   13.2232 C.ar      1 <0>        -0.1544
     41 O4         -8.1674    1.0254   14.7432 O.3       1 <0>        -0.3220
     42 C31        -7.8470    0.7413   16.1065 C.3       1 <0>         0.0291
     43 O5         -3.6996   -2.4544    8.7749 O.3       1 <0>        -0.5520
     44 H3          1.0039    1.9031    0.0027 H         1 <0>         0.0539
     45 H4         -0.5459    1.8868   -0.8726 H         1 <0>         0.0583
     46 H5         -0.5289    1.8773    0.9072 H         1 <0>         0.0556
     47 H6         -1.0205   -0.3814    0.0098 H         1 <0>         0.0722
     48 H7          0.5123   -0.3556   -0.8948 H         1 <0>         0.0730
     49 H8          2.7280   -0.8555    0.4798 H         1 <0>         0.1738
     50 H9         -1.5974    0.4770    2.8499 H         1 <0>         0.1405
     51 H10        -0.8114   -2.5841    5.7489 H         1 <0>         0.1374
     52 H11         0.6240   -4.3876    4.0016 H         1 <0>         0.4285
     53 H12         4.8075   -3.7346    4.3301 H         1 <0>         0.1435
     54 H13         3.6050   -3.4088    3.0497 H         1 <0>         0.1369
     55 H14         3.1242   -1.5553    5.1861 H         1 <0>         0.0896
     56 H15         4.8694   -1.5312    4.8547 H         1 <0>         0.1101
     57 H16         4.3997   -1.1739    2.4520 H         1 <0>         0.0926
     58 H17         3.7400    0.1217    3.4634 H         1 <0>         0.0884
     59 H18        -2.2282   -1.8489    6.7023 H         1 <0>         0.4033
     60 H19        -5.0599   -2.4000    6.6586 H         1 <0>         0.0779
     61 H20        -6.0288   -1.0504    7.2975 H         1 <0>         0.0847
     62 H21        -6.6401    0.8226    5.8753 H         1 <0>         0.1137
     63 H22        -7.0838    1.5913    3.5785 H         1 <0>         0.1158
     64 H23        -6.1527    0.3534    1.6644 H         1 <0>         0.1149
     65 H24        -4.7773   -1.6528    2.0471 H         1 <0>         0.1137
     66 H25        -4.3266   -2.4167    4.3442 H         1 <0>         0.1095
     67 H26        -4.9068    0.6255    9.3247 H         1 <0>         0.0710
     68 H27        -5.7860   -0.9173    9.2024 H         1 <0>         0.0675
     69 H28        -3.7825   -1.1887   11.1744 H         1 <0>         0.4031
     70 H29        -6.8352    0.5971   10.4533 H         1 <0>         0.1262
     71 H30        -8.4298    1.3693   12.1614 H         1 <0>         0.1294
     72 H31        -5.9431   -0.2675   15.2265 H         1 <0>         0.1268
     73 H32        -4.3520   -1.0501   13.5198 H         1 <0>         0.1227
     74 H33        -7.7700   -0.3372   16.2445 H         1 <0>         0.0527
     75 H34        -6.8960    1.2090   16.3614 H         1 <0>         0.0526
     76 H35        -8.6307    1.1353   16.7536 H         1 <0>         0.0977
     77 H36        -4.5174   -2.8799    8.4830 H         1 <0>         0.3786
@<TRIPOS>BOND
     1    1    2 1
     2    1   44 1
     3    1   45 1
     4    1   46 1
     5    2    3 1
     6    2   47 1
     7    2   48 1
     8    3    7 1
     9    3    4 2
    10    4    5 1
    11    4   49 1
    12    5   18 1
    13    5    6 1
    14    6   11 ar
    15    6    7 ar
    16    7    8 ar
    17    8    9 ar
    18    8   50 1
    19    9   10 ar
    20    9   19 1
    21   10   11 ar
    22   10   51 1
    23   11   12 1
    24   12   13 1
    25   12   52 1
    26   13   14 2
    27   13   15 2
    28   13   16 1
    29   16   17 1
    30   16   53 1
    31   16   54 1
    32   17   18 1
    33   17   55 1
    34   17   56 1
    35   18   57 1
    36   18   58 1
    37   19   20 2
    38   19   21 am
    39   21   22 1
    40   21   59 1
    41   22   23 1
    42   22   24 1
    43   22   31 1
    44   24   25 1
    45   24   60 1
    46   24   61 1
    47   25   30 ar
    48   25   26 ar
    49   26   27 ar
    50   26   62 1
    51   27   28 ar
    52   27   63 1
    53   28   29 ar
    54   28   64 1
    55   29   30 ar
    56   29   65 1
    57   30   66 1
    58   31   32 1
    59   31   33 1
    60   31   43 1
    61   33   34 1
    62   33   67 1
    63   33   68 1
    64   34   35 1
    65   34   69 1
    66   35   40 ar
    67   35   36 ar
    68   36   37 ar
    69   36   70 1
    70   37   38 ar
    71   37   71 1
    72   38   39 ar
    73   38   41 1
    74   39   40 ar
    75   39   72 1
    76   40   73 1
    77   41   42 1
    78   42   74 1
    79   42   75 1
    80   42   76 1
    81   43   77 1
@<TRIPOS>MOLECULE
CHEMBL264322
   82    85     0     0     0
SMALL
USER_CHARGES

@<TRIPOS>ATOM
      1 C1         -0.0187    1.5258    0.0104 C.3       1 <0>        -0.1682
      2 C2          0.0021   -0.0041    0.0020 C.3       1 <0>         0.1192
      3 N1          0.6878   -0.4765   -1.2033 N.pl3     1 <0>        -0.7432
      4 C3          0.8321   -1.8483   -1.4334 C.ar      1 <0>         0.2111
      5 C4          0.3209   -2.7596   -0.5231 C.ar      1 <0>        -0.1383
      6 C5          0.4650   -4.1295   -0.7528 C.ar      1 <0>        -0.1229
      7 C6          1.1244   -4.5754   -1.9004 C.ar      1 <0>         0.1089
      8 C7          1.6338   -3.6544   -2.8078 C.ar      1 <0>         0.1594
      9 C8          1.4826   -2.2948   -2.5769 C.ar      1 <0>        -0.1260
     10 N2          2.2950   -4.0985   -3.9574 N.pl3     1 <0>        -0.9501
     11 C9          3.7593   -4.2304   -3.9870 C.3       1 <0>         0.1121
     12 C10         4.3244   -3.3799   -5.1230 C.3       1 <0>        -0.1562
     13 C11         3.8503   -3.9033   -6.4767 C.3       1 <0>        -0.1143
     14 C12         2.3540   -3.6167   -6.6479 C.3       1 <0>        -0.6087
     15 S1          1.4486   -4.5010   -5.3330 S.o2      1 <0>         2.5846
     16 O1          1.6158   -5.9053   -5.4716 O.2       1 <0>        -0.9355
     17 O2          0.1584   -3.9339   -5.1517 O.2       1 <0>        -0.9459
     18 F1          1.2672   -5.8995   -2.1276 F         1 <0>        -0.1069
     19 C13        -0.0781   -5.1040    0.2154 C.2       1 <0>         0.5639
     20 O3          0.0482   -6.2962    0.0138 O.2       1 <0>        -0.4861
     21 N3         -0.7138   -4.6715    1.3224 N.am      1 <0>        -0.7237
     22 C14        -1.2524   -5.6380    2.2826 C.3       1 <0>         0.1274
     23 H1         -1.6182   -6.5152    1.7489 H         1 <0>         0.1109
     24 C15        -0.1499   -6.0571    3.2573 C.3       1 <0>        -0.1008
     25 C16         0.9279   -6.7976    2.5083 C.ar      1 <0>        -0.0806
     26 C17         0.8491   -8.1698    2.3607 C.ar      1 <0>        -0.1064
     27 C18         1.8378   -8.8490    1.6737 C.ar      1 <0>        -0.1102
     28 C19         2.9051   -8.1560    1.1339 C.ar      1 <0>        -0.1076
     29 C20         2.9835   -6.7837    1.2807 C.ar      1 <0>        -0.1074
     30 C21         1.9926   -6.1039    1.9640 C.ar      1 <0>        -0.1064
     31 C22        -2.4038   -4.9971    3.0600 C.3       1 <0>         0.0750
     32 H2         -3.1487   -4.6188    2.3599 H         1 <0>         0.1343
     33 C23        -3.0469   -6.0427    3.9732 C.3       1 <0>        -0.0477
     34 N4         -4.2255   -5.4611    4.6295 N.4       1 <0>        -0.5037
     35 C24        -4.8430   -6.4650    5.5063 C.3       1 <0>         0.0470
     36 C25        -6.0521   -5.8684    6.1795 C.ar      1 <0>        -0.1271
     37 C26        -5.9172   -5.2201    7.3936 C.ar      1 <0>        -0.1327
     38 C27        -7.0244   -4.6717    8.0137 C.ar      1 <0>        -0.0713
     39 C28        -8.2690   -4.7706    7.4218 C.ar      1 <0>        -0.1762
     40 C29        -8.4068   -5.4204    6.2041 C.ar      1 <0>         0.1378
     41 C30        -7.2930   -5.9646    5.5808 C.ar      1 <0>        -0.1308
     42 O4         -9.6299   -5.5190    5.6199 O.3       1 <0>        -0.3114
     43 C31       -10.7305   -4.9303    6.3156 C.3       1 <0>         0.0218
     44 O5         -1.9020   -3.9179    3.8509 O.3       1 <0>        -0.5496
     45 H3          1.0039    1.9031    0.0027 H         1 <0>         0.0644
     46 H4         -0.5459    1.8868   -0.8726 H         1 <0>         0.0645
     47 H5         -0.5289    1.8773    0.9072 H         1 <0>         0.0754
     48 H6          0.5293   -0.3651    0.8851 H         1 <0>         0.0608
     49 H7         -1.0205   -0.3814    0.0098 H         1 <0>         0.0600
     50 H8          1.0417    0.1622   -1.8418 H         1 <0>         0.4055
     51 H9         -0.1880   -2.4107    0.3632 H         1 <0>         0.1343
     52 H10         1.8754   -1.5813   -3.2862 H         1 <0>         0.1413
     53 H11         4.1740   -3.8908   -3.0379 H         1 <0>         0.0959
     54 H12         4.0269   -5.2748   -4.1474 H         1 <0>         0.0872
     55 H13         3.9913   -2.3494   -4.9998 H         1 <0>         0.0797
     56 H14         5.4134   -3.4112   -5.0874 H         1 <0>         0.0993
     57 H15         4.4075   -3.4083   -7.2720 H         1 <0>         0.0936
     58 H16         4.0219   -4.9783   -6.5300 H         1 <0>         0.0862
     59 H17         2.1734   -2.5450   -6.5650 H         1 <0>         0.1366
     60 H18         2.0214   -3.9713   -7.6235 H         1 <0>         0.1378
     61 H19        -0.8146   -3.7203    1.4833 H         1 <0>         0.4047
     62 H20         0.2769   -5.1705    3.7261 H         1 <0>         0.0816
     63 H21        -0.5710   -6.7067    4.0246 H         1 <0>         0.0795
     64 H22         0.0152   -8.7112    2.7825 H         1 <0>         0.1119
     65 H23         1.7765   -9.9211    1.5590 H         1 <0>         0.1194
     66 H24         3.6779   -8.6867    0.5977 H         1 <0>         0.1198
     67 H25         3.8176   -6.2423    0.8592 H         1 <0>         0.1163
     68 H26         2.0519   -5.0313    2.0755 H         1 <0>         0.1095
     69 H27        -3.3500   -6.9057    3.3804 H         1 <0>         0.1491
     70 H28        -2.3275   -6.3561    4.7297 H         1 <0>         0.1428
     71 H29        -3.9449   -4.6622    5.1783 H         1 <0>         0.4323
     72 H30        -5.1461   -7.3280    4.9135 H         1 <0>         0.1412
     73 H31        -4.1236   -6.7785    6.2628 H         1 <0>         0.1417
     74 H32        -4.9454   -5.1423    7.8582 H         1 <0>         0.1337
     75 H33        -6.9165   -4.1659    8.9618 H         1 <0>         0.1394
     76 H34        -9.1337   -4.3427    7.9070 H         1 <0>         0.1408
     77 H35        -7.3970   -6.4669    4.6304 H         1 <0>         0.1400
     78 H36       -10.8347   -5.3994    7.2940 H         1 <0>         0.0626
     79 H37       -10.5515   -3.8626    6.4418 H         1 <0>         0.0619
     80 H38       -11.6451   -5.0800    5.7418 H         1 <0>         0.1109
     81 H39        -1.2333   -4.1820    4.4976 H         1 <0>         0.3913
     82 H40        -4.8915   -5.1710    3.9292 H         1 <0>         0.4296
@<TRIPOS>BOND
     1    1    2 1
     2    1   45 1
     3    1   46 1
     4    1   47 1
     5    2    3 1
     6    2   48 1
     7    2   49 1
     8    3    4 1
     9    3   50 1
    10    4    9 ar
    11    4    5 ar
    12    5    6 ar
    13    5   51 1
    14    6    7 ar
    15    6   19 1
    16    7    8 ar
    17    7   18 1
    18    8    9 ar
    19    8   10 1
    20    9   52 1
    21   10   15 1
    22   10   11 1
    23   11   12 1
    24   11   53 1
    25   11   54 1
    26   12   13 1
    27   12   55 1
    28   12   56 1
    29   13   14 1
    30   13   57 1
    31   13   58 1
    32   14   15 1
    33   14   59 1
    34   14   60 1
    35   15   16 2
    36   15   17 2
    37   19   20 2
    38   19   21 am
    39   21   22 1
    40   21   61 1
    41   22   23 1
    42   22   24 1
    43   22   31 1
    44   24   25 1
    45   24   62 1
    46   24   63 1
    47   25   30 ar
    48   25   26 ar
    49   26   27 ar
    50   26   64 1
    51   27   28 ar
    52   27   65 1
    53   28   29 ar
    54   28   66 1
    55   29   30 ar
    56   29   67 1
    57   30   68 1
    58   31   32 1
    59   31   33 1
    60   31   44 1
    61   33   34 1
    62   33   69 1
    63   33   70 1
    64   34   35 1
    65   34   71 1
    66   34   82 1
    67   35   36 1
    68   35   72 1
    69   35   73 1
    70   36   41 ar
    71   36   37 ar
    72   37   38 ar
    73   37   74 1
    74   38   39 ar
    75   38   75 1
    76   39   40 ar
    77   39   76 1
    78   40   41 ar
    79   40   42 1
    80   41   77 1
    81   42   43 1
    82   43   78 1
    83   43   79 1
    84   43   80 1
    85   44   81 1
@<TRIPOS>MOLECULE
CHEMBL257645
   88    90     0     0     0
SMALL
USER_CHARGES

@<TRIPOS>ATOM
      1 C1          4.0647   -5.6282    2.5249 C.3       1 <0>        -0.1538
      2 C2          3.4073   -5.4637    1.1532 C.3       1 <0>        -0.1487
      3 C3          2.3154   -4.3951    1.2359 C.3       1 <0>         0.0953
      4 N1          1.7889   -4.1301   -0.1053 N.am      1 <0>        -0.6041
      5 C4          0.8048   -5.0387   -0.6987 C.3       1 <0>         0.1120
      6 C5         -0.6056   -4.5732   -0.3316 C.3       1 <0>        -0.1382
      7 C6         -1.6334   -5.5222   -0.9513 C.3       1 <0>        -0.1509
      8 C7          2.2099   -3.0503   -0.7933 C.2       1 <0>         0.5580
      9 O1          1.8312   -2.8710   -1.9343 O.2       1 <0>        -0.5234
     10 C8          3.1325   -2.0838   -0.1600 C.ar      1 <0>        -0.1242
     11 C9          4.2701   -2.5385    0.5114 C.ar      1 <0>        -0.0687
     12 C10         5.1325   -1.6374    1.1032 C.ar      1 <0>        -0.0904
     13 C11         4.8774   -0.2818    1.0360 C.ar      1 <0>        -0.0677
     14 C12         3.7435    0.1863    0.3682 C.ar      1 <0>        -0.1451
     15 C13         2.8723   -0.7174   -0.2365 C.ar      1 <0>        -0.0131
     16 C14         3.4715    1.6379    0.2981 C.2       1 <0>         0.5726
     17 O2          2.4360    2.0390   -0.1963 O.2       1 <0>        -0.5178
     18 N2          4.3717    2.5164    0.7822 N.am      1 <0>        -0.7208
     19 C15         4.0454    3.9435    0.8386 C.3       1 <0>         0.1039
     20 H1          3.3029    4.1768    0.0754 H         1 <0>         0.0999
     21 C16         3.4815    4.2836    2.2196 C.3       1 <0>        -0.1092
     22 C17         2.1607    3.5833    2.4094 C.ar      1 <0>        -0.0306
     23 C18         1.0013    4.1501    1.9149 C.ar      1 <0>        -0.1591
     24 C19        -0.2130    3.5077    2.0891 C.ar      1 <0>         0.1458
     25 C20        -0.2652    2.2972    2.7584 C.ar      1 <0>        -0.1868
     26 C21         0.8967    1.7302    3.2527 C.ar      1 <0>         0.1455
     27 C22         2.1106    2.3719    3.0728 C.ar      1 <0>        -0.1563
     28 F1          0.8473    0.5487    3.9061 F         1 <0>        -0.1242
     29 F2         -1.3463    4.0624    1.6065 F         1 <0>        -0.1259
     30 C23         5.3106    4.7662    0.5875 C.3       1 <0>         0.0885
     31 H2          5.7615    4.4604   -0.3566 H         1 <0>         0.1354
     32 C24         4.9487    6.2514    0.5223 C.3       1 <0>        -0.0056
     33 H3          4.4979    6.5568    1.4666 H         1 <0>         0.1477
     34 C25         6.2147    7.0738    0.2727 C.3       1 <0>        -0.1339
     35 C26         5.8476    8.5592    0.2086 C.3       1 <0>         0.0799
     36 H4          5.4432    8.8765    1.1698 H         1 <0>         0.0779
     37 C27         4.7950    8.7680   -0.8839 C.3       1 <0>        -0.1752
     38 C28         3.5816    7.8829   -0.5915 C.3       1 <0>        -0.0031
     39 N3          3.9936    6.4742   -0.5698 N.4       1 <0>        -0.5067
     40 O3          7.0137    9.3269   -0.0961 O.3       1 <0>        -0.3588
     41 C29         7.0007   10.6463    0.4527 C.3       1 <0>         0.0628
     42 C30         8.2904   11.3725    0.0653 C.3       1 <0>         0.0580
     43 O4          8.3282   11.5529   -1.3518 O.3       1 <0>        -0.3882
     44 C31         9.4985   12.2252   -1.8212 C.3       1 <0>         0.0295
     45 O5          6.2394    4.5485    1.6515 O.3       1 <0>        -0.5202
     46 C32         6.3574   -2.1353    1.8262 C.3       1 <0>        -0.1200
     47 H5          4.5810   -4.7065    2.7933 H         1 <0>         0.0560
     48 H6          3.3002   -5.8468    3.2704 H         1 <0>         0.0609
     49 H7          4.7815   -6.4486    2.4882 H         1 <0>         0.0634
     50 H8          4.1586   -5.1598    0.4243 H         1 <0>         0.0680
     51 H9          2.9654   -6.4116    0.8460 H         1 <0>         0.0736
     52 H10         1.5095   -4.7481    1.8794 H         1 <0>         0.0829
     53 H11         2.7351   -3.4780    1.6493 H         1 <0>         0.0878
     54 H12         0.9170   -5.0380   -1.7829 H         1 <0>         0.0882
     55 H13         0.9653   -6.0472   -0.3175 H         1 <0>         0.0817
     56 H14        -0.7178   -4.5739    0.7526 H         1 <0>         0.0628
     57 H15        -0.7661   -3.5647   -0.7128 H         1 <0>         0.0643
     58 H16        -1.4729   -6.5307   -0.5701 H         1 <0>         0.0572
     59 H17        -2.6382   -5.1905   -0.6898 H         1 <0>         0.0592
     60 H18        -1.5212   -5.5214   -2.0355 H         1 <0>         0.0582
     61 H19         4.4751   -3.5974    0.5679 H         1 <0>         0.1472
     62 H20         5.5561    0.4178    1.5011 H         1 <0>         0.1298
     63 H21         1.9967   -0.3604   -0.7582 H         1 <0>         0.1422
     64 H22         5.2356    2.2038    1.0934 H         1 <0>         0.4132
     65 H23         4.1808    3.9551    2.9885 H         1 <0>         0.1007
     66 H24         3.3359    5.3611    2.2973 H         1 <0>         0.0891
     67 H25         1.0423    5.0946    1.3928 H         1 <0>         0.1324
     68 H26        -1.2119    1.7956    2.8950 H         1 <0>         0.1521
     69 H27         3.0179    1.9275    3.4546 H         1 <0>         0.1399
     70 H28         6.9222    6.9085    1.0853 H         1 <0>         0.1265
     71 H29         6.6662    6.7694   -0.6715 H         1 <0>         0.1025
     72 H30         4.4877    9.8137   -0.8982 H         1 <0>         0.1164
     73 H31         5.2171    8.4988   -1.8522 H         1 <0>         0.1016
     74 H32         3.1602    8.1531    0.3768 H         1 <0>         0.1337
     75 H33         2.8302    8.0293   -1.3674 H         1 <0>         0.1428
     76 H34         4.4286    6.2380   -1.4490 H         1 <0>         0.4324
     77 H35         6.1435   11.1942    0.0613 H         1 <0>         0.0635
     78 H36         6.9291   10.5874    1.5388 H         1 <0>         0.0718
     79 H37         8.3212   12.3452    0.5563 H         1 <0>         0.0713
     80 H38         9.1495   10.7797    0.3791 H         1 <0>         0.0616
     81 H39         9.4511   12.3228   -2.9057 H         1 <0>         0.0903
     82 H40         9.5544   13.2156   -1.3693 H         1 <0>         0.0449
     83 H41        10.3827   11.6501   -1.5464 H         1 <0>         0.0449
     84 H42         5.9044    4.7991    2.5233 H         1 <0>         0.3891
     85 H43         7.1916   -2.1976    1.1274 H         1 <0>         0.0785
     86 H44         6.6091   -1.4457    2.6319 H         1 <0>         0.0725
     87 H45         6.1574   -3.1227    2.2423 H         1 <0>         0.0743
     88 H46         3.1827    5.8901   -0.4305 H         1 <0>         0.4286
@<TRIPOS>BOND
     1    1    2 1
     2    1   47 1
     3    1   48 1
     4    1   49 1
     5    2    3 1
     6    2   50 1
     7    2   51 1
     8    3    4 1
     9    3   52 1
    10    3   53 1
    11    4    5 1
    12    4    8 am
    13    5    6 1
    14    5   54 1
    15    5   55 1
    16    6    7 1
    17    6   56 1
    18    6   57 1
    19    7   58 1
    20    7   59 1
    21    7   60 1
    22    8    9 2
    23    8   10 1
    24   10   15 ar
    25   10   11 ar
    26   11   12 ar
    27   11   61 1
    28   12   13 ar
    29   12   46 1
    30   13   14 ar
    31   13   62 1
    32   14   15 ar
    33   14   16 1
    34   15   63 1
    35   16   17 2
    36   16   18 am
    37   18   19 1
    38   18   64 1
    39   19   20 1
    40   19   21 1
    41   19   30 1
    42   21   22 1
    43   21   65 1
    44   21   66 1
    45   22   27 ar
    46   22   23 ar
    47   23   24 ar
    48   23   67 1
    49   24   25 ar
    50   24   29 1
    51   25   26 ar
    52   25   68 1
    53   26   27 ar
    54   26   28 1
    55   27   69 1
    56   30   31 1
    57   30   32 1
    58   30   45 1
    59   32   33 1
    60   32   39 1
    61   32   34 1
    62   34   35 1
    63   34   70 1
    64   34   71 1
    65   35   36 1
    66   35   37 1
    67   35   40 1
    68   37   38 1
    69   37   72 1
    70   37   73 1
    71   38   39 1
    72   38   74 1
    73   38   75 1
    74   39   76 1
    75   39   88 1
    76   40   41 1
    77   41   42 1
    78   41   77 1
    79   41   78 1
    80   42   43 1
    81   42   79 1
    82   42   80 1
    83   43   44 1
    84   44   81 1
    85   44   82 1
    86   44   83 1
    87   45   84 1
    88   46   85 1
    89   46   86 1
    90   46   87 1
@<TRIPOS>MOLECULE
CHEMBL442847
   76    80     0     0     0
SMALL
USER_CHARGES

@<TRIPOS>ATOM
      1 C1         -0.0167    1.3781    0.0096 C.ar      1 <0>        -0.1149
      2 C2          1.1709    2.0855    0.0021 C.ar      1 <0>        -0.1248
      3 C3          2.3773    1.4107   -0.0130 C.ar      1 <0>        -0.1068
      4 C4          2.3960    0.0285   -0.0201 C.ar      1 <0>        -0.1098
      5 C5          1.2084   -0.6789   -0.0117 C.ar      1 <0>        -0.0921
      6 C6          0.0021   -0.0041    0.0020 C.ar      1 <0>        -0.1233
      7 C7          3.7112   -0.7071   -0.0376 C.3       1 <0>         0.1509
      8 N1          4.1518   -0.9524    1.3379 N.am      1 <0>        -0.5968
      9 C8          4.9829    0.0530    1.9938 C.3       1 <0>         0.1144
     10 C9          5.6942   -0.5612    3.2010 C.3       1 <0>         0.0392
     11 N2          4.6993   -1.2598    4.0308 N.3       1 <0>        -0.6735
     12 C10         4.2024   -2.4516    3.3302 C.3       1 <0>         0.0415
     13 H1          4.9942   -3.1992    3.2819 H         1 <0>         0.0792
     14 C11         3.7705   -2.0846    1.9385 C.2       1 <0>         0.5238
     15 O1          3.0498   -2.8493    1.3330 O.2       1 <0>        -0.5145
     16 C12         3.0066   -3.0268    4.0919 C.3       1 <0>         0.1248
     17 H2          2.2154   -2.2789    4.1443 H         1 <0>         0.1193
     18 C13         3.4406   -3.4102    5.5081 C.3       1 <0>         0.1207
     19 H3          3.8921   -2.5464    5.9961 H         1 <0>         0.1075
     20 C14         4.4613   -4.5478    5.4384 C.3       1 <0>        -0.1078
     21 C15         4.9802   -4.8426    6.8221 C.ar      1 <0>        -0.0056
     22 C16         6.0930   -4.1758    7.2989 C.ar      1 <0>        -0.1522
     23 C17         6.5710   -4.4462    8.5700 C.ar      1 <0>         0.1411
     24 C18         5.9337   -5.3844    9.3635 C.ar      1 <0>        -0.1924
     25 C19         4.8190   -6.0513    8.8852 C.ar      1 <0>         0.1391
     26 C20         4.3397   -5.7755    7.6156 C.ar      1 <0>        -0.1570
     27 F1          4.1959   -6.9672    9.6585 F         1 <0>        -0.1324
     28 F2          7.6593   -3.7949    9.0355 F         1 <0>        -0.1320
     29 N3          2.2720   -3.8489    6.2750 N.am      1 <0>        -0.7167
     30 C21         2.2746   -3.7558    7.6195 C.2       1 <0>         0.5286
     31 O2          3.2444   -3.3089    8.1946 O.2       1 <0>        -0.5149
     32 C22         1.0725   -4.2071    8.4084 C.3       1 <0>        -0.1244
     33 C23        -0.1396   -3.2833    8.1470 C.3       1 <0>        -0.1435
     34 C24        -0.8302   -3.1885    9.4896 C.2       1 <0>         0.5212
     35 O3         -1.9642   -2.7940    9.6612 O.2       1 <0>        -0.5229
     36 N4         -0.0043   -3.6054   10.4647 N.am      1 <0>        -0.6124
     37 C25         1.2990   -4.0083    9.9235 C.3       1 <0>         0.1187
     38 C26        -0.3595   -3.6516   11.8853 C.3       1 <0>         0.1662
     39 C27        -0.9589   -4.9957   12.2097 C.ar      1 <0>        -0.1134
     40 C28        -2.3226   -5.1903   12.0944 C.ar      1 <0>        -0.0965
     41 C29        -2.8724   -6.4232   12.3920 C.ar      1 <0>        -0.1220
     42 C30        -2.0585   -7.4616   12.8044 C.ar      1 <0>        -0.1140
     43 C31        -0.6947   -7.2673   12.9188 C.ar      1 <0>        -0.1229
     44 C32        -0.1443   -6.0356   12.6171 C.ar      1 <0>        -0.1045
     45 O4          2.5218   -4.1864    3.4119 O.3       1 <0>        -0.5284
     46 H4         -0.9591    1.9053    0.0259 H         1 <0>         0.1210
     47 H5          1.1563    3.1654    0.0076 H         1 <0>         0.1213
     48 H6          3.3051    1.9634   -0.0196 H         1 <0>         0.1185
     49 H7          1.2231   -1.7588   -0.0176 H         1 <0>         0.1290
     50 H8         -0.9258   -0.5567    0.0082 H         1 <0>         0.1216
     51 H9          3.5884   -1.6586   -0.5549 H         1 <0>         0.0951
     52 H10         4.4573   -0.1052   -0.5563 H         1 <0>         0.0856
     53 H11         5.7251    0.4253    1.2877 H         1 <0>         0.0813
     54 H12         4.3555    0.8801    2.3260 H         1 <0>         0.0753
     55 H13         6.4480   -1.2704    2.8592 H         1 <0>         0.0472
     56 H14         6.1690    0.2270    3.7854 H         1 <0>         0.1023
     57 H15         5.0859   -1.5039    4.9302 H         1 <0>         0.3537
     58 H16         3.9842   -5.4395    5.0316 H         1 <0>         0.0905
     59 H17         5.2901   -4.2534    4.7946 H         1 <0>         0.0878
     60 H18         6.5901   -3.4438    6.6796 H         1 <0>         0.1348
     61 H19         6.3060   -5.5962   10.3549 H         1 <0>         0.1448
     62 H20         3.4674   -6.2925    7.2438 H         1 <0>         0.1336
     63 H21         1.4963   -4.2063    5.8151 H         1 <0>         0.4091
     64 H22         0.8281   -5.2453    8.1834 H         1 <0>         0.1165
     65 H23         0.1946   -2.2989    7.8195 H         1 <0>         0.1095
     66 H24        -0.8049   -3.7272    7.4063 H         1 <0>         0.1114
     67 H25         1.6255   -4.9419   10.3818 H         1 <0>         0.0830
     68 H26         2.0372   -3.2248   10.0949 H         1 <0>         0.0939
     69 H27         0.5351   -3.4976   12.4887 H         1 <0>         0.0900
     70 H28        -1.0848   -2.8680   12.1041 H         1 <0>         0.0935
     71 H29        -2.9585   -4.3790   11.7722 H         1 <0>         0.1254
     72 H30        -3.9380   -6.5750   12.3026 H         1 <0>         0.1227
     73 H31        -2.4882   -8.4246   13.0376 H         1 <0>         0.1221
     74 H32        -0.0588   -8.0785   13.2414 H         1 <0>         0.1227
     75 H33         0.9217   -5.8848   12.7029 H         1 <0>         0.1205
     76 H34         3.1745   -4.8949    3.3284 H         1 <0>         0.3725
@<TRIPOS>BOND
     1    1    6 ar
     2    1    2 ar
     3    1   46 1
     4    2    3 ar
     5    2   47 1
     6    3    4 ar
     7    3   48 1
     8    4    5 ar
     9    4    7 1
    10    5    6 ar
    11    5   49 1
    12    6   50 1
    13    7    8 1
    14    7   51 1
    15    7   52 1
    16    8   14 am
    17    8    9 1
    18    9   10 1
    19    9   53 1
    20    9   54 1
    21   10   11 1
    22   10   55 1
    23   10   56 1
    24   11   12 1
    25   11   57 1
    26   12   13 1
    27   12   14 1
    28   12   16 1
    29   14   15 2
    30   16   17 1
    31   16   18 1
    32   16   45 1
    33   18   19 1
    34   18   20 1
    35   18   29 1
    36   20   21 1
    37   20   58 1
    38   20   59 1
    39   21   26 ar
    40   21   22 ar
    41   22   23 ar
    42   22   60 1
    43   23   24 ar
    44   23   28 1
    45   24   25 ar
    46   24   61 1
    47   25   26 ar
    48   25   27 1
    49   26   62 1
    50   29   30 am
    51   29   63 1
    52   30   31 2
    53   30   32 1
    54   32   37 1
    55   32   33 1
    56   32   64 1
    57   33   34 1
    58   33   65 1
    59   33   66 1
    60   34   35 2
    61   34   36 am
    62   36   37 1
    63   36   38 1
    64   37   67 1
    65   37   68 1
    66   38   39 1
    67   38   69 1
    68   38   70 1
    69   39   44 ar
    70   39   40 ar
    71   40   41 ar
    72   40   71 1
    73   41   42 ar
    74   41   72 1
    75   42   43 ar
    76   42   73 1
    77   43   44 ar
    78   43   74 1
    79   44   75 1
    80   45   76 1
@<TRIPOS>MOLECULE
CHEMBL442847__1
   77    81     0     0     0
SMALL
USER_CHARGES

@<TRIPOS>ATOM
      1 C1          6.9967   -1.1414    9.2014 C.ar      1 <0>        -0.1040
      2 C2          8.0867   -1.4428    8.4065 C.ar      1 <0>        -0.1213
      3 C3          8.0529   -1.1648    7.0528 C.ar      1 <0>        -0.1072
      4 C4          6.9289   -0.5859    6.4940 C.ar      1 <0>        -0.1282
      5 C5          5.8385   -0.2853    7.2887 C.ar      1 <0>        -0.0940
      6 C6          5.8729   -0.5620    8.6427 C.ar      1 <0>        -0.1198
      7 C7          6.8924   -0.2819    5.0184 C.3       1 <0>         0.1540
      8 N1          6.3566   -1.4376    4.2948 N.am      1 <0>        -0.6023
      9 C8          7.2846   -2.4644    3.8273 C.3       1 <0>         0.0791
     10 C9          6.6129   -3.3237    2.7545 C.3       1 <0>        -0.0199
     11 N2          5.3119   -3.7855    3.2628 N.4       1 <0>        -0.5064
     12 C10         4.3955   -2.6406    3.3338 C.3       1 <0>        -0.0221
     13 H1          4.1528   -2.3090    2.3243 H         1 <0>         0.1744
     14 C11         5.0362   -1.5135    4.0932 C.2       1 <0>         0.5019
     15 O1          4.3283   -0.6347    4.5375 O.2       1 <0>        -0.4543
     16 C12         3.1118   -3.0622    4.0516 C.3       1 <0>         0.1013
     17 H2          3.3394   -3.3078    5.0888 H         1 <0>         0.1358
     18 C13         2.5175   -4.2883    3.3556 C.3       1 <0>         0.1064
     19 H3          3.2664   -5.0789    3.3103 H         1 <0>         0.0938
     20 C14         2.0877   -3.9109    1.9366 C.3       1 <0>        -0.1118
     21 C15         1.6036   -5.1418    1.2142 C.ar      1 <0>        -0.0212
     22 C16         2.4950   -5.9162    0.4960 C.ar      1 <0>        -0.1596
     23 C17         2.0513   -7.0471   -0.1685 C.ar      1 <0>         0.1465
     24 C18         0.7146   -7.4022   -0.1128 C.ar      1 <0>        -0.1849
     25 C19        -0.1772   -6.6261    0.6072 C.ar      1 <0>         0.1481
     26 C20         0.2698   -5.4984    1.2752 C.ar      1 <0>        -0.1561
     27 F1         -1.4821   -6.9715    0.6625 F         1 <0>        -0.1253
     28 F2          2.9226   -7.8035   -0.8713 F         1 <0>        -0.1276
     29 N3          1.3533   -4.7610    4.1090 N.am      1 <0>        -0.7192
     30 C21         0.9716   -6.0505    4.0205 C.2       1 <0>         0.5345
     31 O2          1.5919   -6.8196    3.3171 O.2       1 <0>        -0.5091
     32 C22        -0.2259   -6.5368    4.7955 C.3       1 <0>        -0.1256
     33 C23         0.0532   -6.5154    6.3162 C.3       1 <0>        -0.1423
     34 C24        -0.6492   -7.7488    6.8396 C.2       1 <0>         0.5184
     35 O3         -0.9137   -7.9556    8.0051 O.2       1 <0>        -0.5157
     36 N4         -0.9378   -8.5820    5.8251 N.am      1 <0>        -0.6115
     37 C25        -0.4751   -8.0401    4.5421 C.3       1 <0>         0.1185
     38 C26        -1.6258   -9.8661    5.9802 C.3       1 <0>         0.1666
     39 C27        -3.1131   -9.6574    5.8557 C.ar      1 <0>        -0.1174
     40 C28        -3.8677   -9.3741    6.9788 C.ar      1 <0>        -0.0964
     41 C29        -5.2319   -9.1827    6.8646 C.ar      1 <0>        -0.1205
     42 C30        -5.8415   -9.2740    5.6273 C.ar      1 <0>        -0.1111
     43 C31        -5.0868   -9.5564    4.5041 C.ar      1 <0>        -0.1223
     44 C32        -3.7219   -9.7436    4.6177 C.ar      1 <0>        -0.1054
     45 O4          2.1694   -1.9886    4.0121 O.3       1 <0>        -0.4995
     46 H4          7.0214   -1.3627   10.2582 H         1 <0>         0.1270
     47 H5          8.9649   -1.8951    8.8431 H         1 <0>         0.1266
     48 H6          8.9048   -1.3997    6.4319 H         1 <0>         0.1209
     49 H7          4.9605    0.1673    6.8522 H         1 <0>         0.1290
     50 H8          5.0212   -0.3268    9.2637 H         1 <0>         0.1266
     51 H9          6.2554    0.5847    4.8416 H         1 <0>         0.1061
     52 H10         7.9017   -0.0689    4.6662 H         1 <0>         0.1002
     53 H11         8.1703   -1.9877    3.4073 H         1 <0>         0.1308
     54 H12         7.5781   -3.0960    4.6658 H         1 <0>         0.1009
     55 H13         6.4630   -2.7306    1.8523 H         1 <0>         0.1461
     56 H14         7.2429   -4.1839    2.5280 H         1 <0>         0.1628
     57 H15         4.9337   -4.4829    2.6394 H         1 <0>         0.4368
     58 H16         1.2829   -3.1772    1.9837 H         1 <0>         0.1036
     59 H17         2.9363   -3.4855    1.4009 H         1 <0>         0.0852
     60 H18         3.5379   -5.6390    0.4526 H         1 <0>         0.1305
     61 H19         0.3675   -8.2839   -0.6311 H         1 <0>         0.1507
     62 H20        -0.4250   -4.8952    1.8407 H         1 <0>         0.1369
     63 H21         0.8573   -4.1459    4.6716 H         1 <0>         0.4171
     64 H22        -1.1106   -5.9483    4.5523 H         1 <0>         0.1215
     65 H23         1.1244   -6.5760    6.5083 H         1 <0>         0.1059
     66 H24        -0.3662   -5.6167    6.7684 H         1 <0>         0.1127
     67 H25        -1.2418   -8.1719    3.7785 H         1 <0>         0.0854
     68 H26         0.4498   -8.5297    4.2373 H         1 <0>         0.0925
     69 H27        -1.2894  -10.5545    5.2050 H         1 <0>         0.0909
     70 H28        -1.3984  -10.2840    6.9609 H         1 <0>         0.0952
     71 H29        -3.3914   -9.3028    7.9455 H         1 <0>         0.1254
     72 H30        -5.8216   -8.9621    7.7421 H         1 <0>         0.1243
     73 H31        -6.9075   -9.1252    5.5382 H         1 <0>         0.1240
     74 H32        -5.5631   -9.6281    3.5375 H         1 <0>         0.1237
     75 H33        -3.1317   -9.9605    3.7396 H         1 <0>         0.1194
     76 H34         1.9204   -1.7166    3.1182 H         1 <0>         0.3880
     77 H35         5.4300   -4.1814    4.1834 H         1 <0>         0.4363
@<TRIPOS>BOND
     1    1    6 ar
     2    1    2 ar
     3    1   46 1
     4    2    3 ar
     5    2   47 1
     6    3    4 ar
     7    3   48 1
     8    4    5 ar
     9    4    7 1
    10    5    6 ar
    11    5   49 1
    12    6   50 1
    13    7    8 1
    14    7   51 1
    15    7   52 1
    16    8   14 am
    17    8    9 1
    18    9   10 1
    19    9   53 1
    20    9   54 1
    21   10   11 1
    22   10   55 1
    23   10   56 1
    24   11   12 1
    25   11   57 1
    26   11   77 1
    27   12   13 1
    28   12   14 1
    29   12   16 1
    30   14   15 2
    31   16   17 1
    32   16   18 1
    33   16   45 1
    34   18   19 1
    35   18   20 1
    36   18   29 1
    37   20   21 1
    38   20   58 1
    39   20   59 1
    40   21   26 ar
    41   21   22 ar
    42   22   23 ar
    43   22   60 1
    44   23   24 ar
    45   23   28 1
    46   24   25 ar
    47   24   61 1
    48   25   26 ar
    49   25   27 1
    50   26   62 1
    51   29   30 am
    52   29   63 1
    53   30   31 2
    54   30   32 1
    55   32   37 1
    56   32   33 1
    57   32   64 1
    58   33   34 1
    59   33   65 1
    60   33   66 1
    61   34   35 2
    62   34   36 am
    63   36   37 1
    64   36   38 1
    65   37   67 1
    66   37   68 1
    67   38   39 1
    68   38   69 1
    69   38   70 1
    70   39   44 ar
    71   39   40 ar
    72   40   41 ar
    73   40   71 1
    74   41   42 ar
    75   41   72 1
    76   42   43 ar
    77   42   73 1
    78   43   44 ar
    79   43   74 1
    80   44   75 1
    81   45   76 1
@<TRIPOS>MOLECULE
CHEMBL442847__2
   76    80     0     0     0
SMALL
USER_CHARGES

@<TRIPOS>ATOM
      1 C1         -0.0167    1.3781    0.0096 C.ar      1 <0>        -0.1151
      2 C2          1.1709    2.0855    0.0021 C.ar      1 <0>        -0.1248
      3 C3          2.3773    1.4107   -0.0130 C.ar      1 <0>        -0.1068
      4 C4          2.3960    0.0285   -0.0201 C.ar      1 <0>        -0.1094
      5 C5          1.2084   -0.6789   -0.0117 C.ar      1 <0>        -0.0921
      6 C6          0.0021   -0.0041    0.0020 C.ar      1 <0>        -0.1235
      7 C7          3.7112   -0.7071   -0.0376 C.3       1 <0>         0.1507
      8 N1          4.1518   -0.9524    1.3379 N.am      1 <0>        -0.5969
      9 C8          4.9829    0.0530    1.9938 C.3       1 <0>         0.1145
     10 C9          5.6942   -0.5612    3.2010 C.3       1 <0>         0.0391
     11 N2          4.6993   -1.2598    4.0308 N.3       1 <0>        -0.6734
     12 C10         4.2024   -2.4516    3.3302 C.3       1 <0>         0.0413
     13 H1          4.9942   -3.1992    3.2819 H         1 <0>         0.0793
     14 C11         3.7705   -2.0846    1.9385 C.2       1 <0>         0.5238
     15 O1          3.0498   -2.8493    1.3330 O.2       1 <0>        -0.5144
     16 C12         3.0066   -3.0268    4.0919 C.3       1 <0>         0.1251
     17 H2          2.2154   -2.2789    4.1443 H         1 <0>         0.1192
     18 C13         3.4406   -3.4102    5.5081 C.3       1 <0>         0.1209
     19 H3          3.8921   -2.5464    5.9961 H         1 <0>         0.1078
     20 C14         4.4613   -4.5478    5.4384 C.3       1 <0>        -0.1083
     21 C15         4.9802   -4.8426    6.8221 C.ar      1 <0>        -0.0043
     22 C16         6.0930   -4.1758    7.2989 C.ar      1 <0>        -0.1533
     23 C17         6.5710   -4.4462    8.5700 C.ar      1 <0>         0.1423
     24 C18         5.9337   -5.3844    9.3635 C.ar      1 <0>        -0.1921
     25 C19         4.8190   -6.0513    8.8852 C.ar      1 <0>         0.1419
     26 C20         4.3397   -5.7755    7.6156 C.ar      1 <0>        -0.1621
     27 F1          4.1959   -6.9672    9.6585 F         1 <0>        -0.1290
     28 F2          7.6593   -3.7949    9.0355 F         1 <0>        -0.1320
     29 N3          2.2720   -3.8489    6.2750 N.am      1 <0>        -0.7170
     30 C21         2.2746   -3.7558    7.6195 C.2       1 <0>         0.5276
     31 O2          3.2444   -3.3089    8.1946 O.2       1 <0>        -0.5139
     32 C22         1.0725   -4.2071    8.4084 C.3       1 <0>        -0.1252
     33 C23         0.8929   -5.7401    8.3149 C.3       1 <0>        -0.1478
     34 C24         0.4111   -6.1418    9.6916 C.2       1 <0>         0.5231
     35 O3         -0.1108   -7.2025    9.9627 O.2       1 <0>        -0.5218
     36 N4          0.6459   -5.1523   10.5705 N.am      1 <0>        -0.6115
     37 C25         1.2990   -4.0083    9.9235 C.3       1 <0>         0.1180
     38 C26         0.2949   -5.2085   11.9917 C.3       1 <0>         0.1673
     39 C27         1.4469   -5.7885   12.7711 C.ar      1 <0>        -0.1133
     40 C28         1.5295   -7.1541   12.9694 C.ar      1 <0>        -0.0943
     41 C29         2.5862   -7.6861   13.6843 C.ar      1 <0>        -0.1211
     42 C30         3.5607   -6.8525   14.2006 C.ar      1 <0>        -0.1132
     43 C31         3.4787   -5.4871   14.0015 C.ar      1 <0>        -0.1234
     44 C32         2.4242   -4.9555   13.2829 C.ar      1 <0>        -0.1025
     45 O4          2.5218   -4.1864    3.4119 O.3       1 <0>        -0.5286
     46 H4         -0.9591    1.9053    0.0259 H         1 <0>         0.1209
     47 H5          1.1563    3.1654    0.0076 H         1 <0>         0.1213
     48 H6          3.3051    1.9634   -0.0196 H         1 <0>         0.1186
     49 H7          1.2231   -1.7588   -0.0176 H         1 <0>         0.1291
     50 H8         -0.9258   -0.5567    0.0082 H         1 <0>         0.1215
     51 H9          3.5884   -1.6586   -0.5549 H         1 <0>         0.0951
     52 H10         4.4573   -0.1052   -0.5563 H         1 <0>         0.0856
     53 H11         5.7251    0.4253    1.2877 H         1 <0>         0.0812
     54 H12         4.3555    0.8801    2.3260 H         1 <0>         0.0752
     55 H13         6.4480   -1.2704    2.8592 H         1 <0>         0.0472
     56 H14         6.1690    0.2270    3.7854 H         1 <0>         0.1023
     57 H15         5.0859   -1.5039    4.9302 H         1 <0>         0.3538
     58 H16         3.9842   -5.4395    5.0316 H         1 <0>         0.0905
     59 H17         5.2901   -4.2534    4.7946 H         1 <0>         0.0882
     60 H18         6.5901   -3.4438    6.6796 H         1 <0>         0.1351
     61 H19         6.3060   -5.5962   10.3549 H         1 <0>         0.1436
     62 H20         3.4674   -6.2925    7.2438 H         1 <0>         0.1327
     63 H21         1.4963   -4.2063    5.8151 H         1 <0>         0.4090
     64 H22         0.1734   -3.6876    8.0769 H         1 <0>         0.1201
     65 H23         0.1468   -5.9916    7.5612 H         1 <0>         0.1125
     66 H24         1.8437   -6.2224    8.0878 H         1 <0>         0.1055
     67 H25         2.3656   -4.0062   10.1483 H         1 <0>         0.0913
     68 H26         0.8413   -3.0760   10.2542 H         1 <0>         0.0854
     69 H27         0.0813   -4.2027   12.3533 H         1 <0>         0.0895
     70 H28        -0.5860   -5.8368   12.1238 H         1 <0>         0.0931
     71 H29         0.7681   -7.8053   12.5661 H         1 <0>         0.1245
     72 H30         2.6503   -8.7529   13.8398 H         1 <0>         0.1217
     73 H31         4.3860   -7.2681   14.7597 H         1 <0>         0.1209
     74 H32         4.2398   -4.8358   14.4051 H         1 <0>         0.1214
     75 H33         2.3620   -3.8890   13.1242 H         1 <0>         0.1195
     76 H34         3.1745   -4.8949    3.3284 H         1 <0>         0.3728
@<TRIPOS>BOND
     1    1    6 ar
     2    1    2 ar
     3    1   46 1
     4    2    3 ar
     5    2   47 1
     6    3    4 ar
     7    3   48 1
     8    4    5 ar
     9    4    7 1
    10    5    6 ar
    11    5   49 1
    12    6   50 1
    13    7    8 1
    14    7   51 1
    15    7   52 1
    16    8   14 am
    17    8    9 1
    18    9   10 1
    19    9   53 1
    20    9   54 1
    21   10   11 1
    22   10   55 1
    23   10   56 1
    24   11   12 1
    25   11   57 1
    26   12   13 1
    27   12   14 1
    28   12   16 1
    29   14   15 2
    30   16   17 1
    31   16   18 1
    32   16   45 1
    33   18   19 1
    34   18   20 1
    35   18   29 1
    36   20   21 1
    37   20   58 1
    38   20   59 1
    39   21   26 ar
    40   21   22 ar
    41   22   23 ar
    42   22   60 1
    43   23   24 ar
    44   23   28 1
    45   24   25 ar
    46   24   61 1
    47   25   26 ar
    48   25   27 1
    49   26   62 1
    50   29   30 am
    51   29   63 1
    52   30   31 2
    53   30   32 1
    54   32   37 1
    55   32   33 1
    56   32   64 1
    57   33   34 1
    58   33   65 1
    59   33   66 1
    60   34   35 2
    61   34   36 am
    62   36   37 1
    63   36   38 1
    64   37   67 1
    65   37   68 1
    66   38   39 1
    67   38   69 1
    68   38   70 1
    69   39   44 ar
    70   39   40 ar
    71   40   41 ar
    72   40   71 1
    73   41   42 ar
    74   41   72 1
    75   42   43 ar
    76   42   73 1
    77   43   44 ar
    78   43   74 1
    79   44   75 1
    80   45   76 1
@<TRIPOS>MOLECULE
CHEMBL442847__3
   77    81     0     0     0
SMALL
USER_CHARGES

@<TRIPOS>ATOM
      1 C1          7.0564   -1.1614    9.1658 C.ar      1 <0>        -0.1043
      2 C2          8.1384   -1.4632    8.3602 C.ar      1 <0>        -0.1213
      3 C3          8.0926   -1.1824    7.0075 C.ar      1 <0>        -0.1072
      4 C4          6.9645   -0.6002    6.4602 C.ar      1 <0>        -0.1279
      5 C5          5.8821   -0.2993    7.2657 C.ar      1 <0>        -0.0940
      6 C6          5.9285   -0.5788    8.6187 C.ar      1 <0>        -0.1200
      7 C7          6.9149   -0.2932    4.9857 C.3       1 <0>         0.1539
      8 N1          6.3703   -1.4464    4.2648 N.am      1 <0>        -0.6024
      9 C8          7.2920   -2.4739    3.7866 C.3       1 <0>         0.0793
     10 C9          6.6088   -3.3298    2.7183 C.3       1 <0>        -0.0201
     11 N2          5.3117   -3.7903    3.2378 N.4       1 <0>        -0.5063
     12 C10         4.3981   -2.6438    3.3196 C.3       1 <0>        -0.0224
     13 H1          4.1467   -2.3097    2.3130 H         1 <0>         0.1745
     14 C11         5.0479   -1.5195    4.0752 C.2       1 <0>         0.5020
     15 O1          4.3458   -0.6403    4.5279 O.2       1 <0>        -0.4542
     16 C12         3.1203   -3.0645    4.0484 C.3       1 <0>         0.1019
     17 H2          3.3570   -3.3125    5.0830 H         1 <0>         0.1357
     18 C13         2.5175   -4.2883    3.3556 C.3       1 <0>         0.1063
     19 H3          3.2615   -5.0835    3.3105 H         1 <0>         0.0945
     20 C14         2.0877   -3.9109    1.9366 C.3       1 <0>        -0.1126
     21 C15         1.6036   -5.1418    1.2142 C.ar      1 <0>        -0.0200
     22 C16         2.4950   -5.9162    0.4960 C.ar      1 <0>        -0.1612
     23 C17         2.0513   -7.0471   -0.1685 C.ar      1 <0>         0.1476
     24 C18         0.7146   -7.4022   -0.1128 C.ar      1 <0>        -0.1844
     25 C19        -0.1772   -6.6261    0.6072 C.ar      1 <0>         0.1510
     26 C20         0.2698   -5.4984    1.2752 C.ar      1 <0>        -0.1609
     27 F1         -1.4821   -6.9715    0.6625 F         1 <0>        -0.1218
     28 F2          2.9226   -7.8035   -0.8713 F         1 <0>        -0.1276
     29 N3          1.3517   -4.7525    4.1118 N.am      1 <0>        -0.7194
     30 C21         0.9620   -6.0399    4.0262 C.2       1 <0>         0.5331
     31 O2          1.5765   -6.8140    3.3233 O.2       1 <0>        -0.5080
     32 C22        -0.2371   -6.5175    4.8040 C.3       1 <0>        -0.1258
     33 C23        -1.5376   -5.8791    4.2632 C.3       1 <0>        -0.1480
     34 C24        -2.5663   -6.9828    4.3735 C.2       1 <0>         0.5207
     35 O3         -3.7670   -6.8212    4.3185 O.2       1 <0>        -0.5135
     36 N4         -1.9559   -8.1687    4.5408 N.am      1 <0>        -0.6115
     37 C25        -0.4959   -8.0197    4.5538 C.3       1 <0>         0.1183
     38 C26        -2.6579   -9.4458    4.6910 C.3       1 <0>         0.1671
     39 C27        -2.8669  -10.0667    3.3339 C.ar      1 <0>        -0.1158
     40 C28        -4.0106   -9.7812    2.6119 C.ar      1 <0>        -0.0940
     41 C29        -4.2023  -10.3508    1.3670 C.ar      1 <0>        -0.1196
     42 C30        -3.2502  -11.2056    0.8440 C.ar      1 <0>        -0.1113
     43 C31        -2.1061  -11.4905    1.5657 C.ar      1 <0>        -0.1237
     44 C32        -1.9123  -10.9175    2.8087 C.ar      1 <0>        -0.1041
     45 O4          2.1796   -1.9892    4.0196 O.3       1 <0>        -0.4997
     46 H4          7.0905   -1.3849   10.2219 H         1 <0>         0.1269
     47 H5          9.0198   -1.9180    8.7877 H         1 <0>         0.1266
     48 H6          8.9382   -1.4175    6.3782 H         1 <0>         0.1210
     49 H7          5.0009    0.1559    6.8382 H         1 <0>         0.1291
     50 H8          5.0830   -0.3433    9.2480 H         1 <0>         0.1265
     51 H9          6.2779    0.5749    4.8166 H         1 <0>         0.1061
     52 H10         7.9213   -0.0813    4.6246 H         1 <0>         0.1002
     53 H11         8.1747   -1.9980    3.3594 H         1 <0>         0.1307
     54 H12         7.5921   -3.1078    4.6210 H         1 <0>         0.1008
     55 H13         6.4516   -2.7346    1.8188 H         1 <0>         0.1461
     56 H14         7.2351   -4.1907    2.4843 H         1 <0>         0.1629
     57 H15         4.9264   -4.4857    2.6164 H         1 <0>         0.4369
     58 H16         1.2829   -3.1772    1.9837 H         1 <0>         0.1037
     59 H17         2.9363   -3.4855    1.4009 H         1 <0>         0.0853
     60 H18         3.5379   -5.6390    0.4526 H         1 <0>         0.1306
     61 H19         0.3675   -8.2839   -0.6311 H         1 <0>         0.1496
     62 H20        -0.4250   -4.8952    1.8407 H         1 <0>         0.1361
     63 H21         0.8603   -4.1334    4.6740 H         1 <0>         0.4170
     64 H22        -0.1155   -6.3145    5.8680 H         1 <0>         0.1239
     65 H23        -1.8269   -5.0253    4.8759 H         1 <0>         0.1141
     66 H24        -1.4109   -5.5782    3.2232 H         1 <0>         0.1043
     67 H25        -0.0776   -8.3196    3.5929 H         1 <0>         0.0900
     68 H26        -0.0630   -8.6160    5.3570 H         1 <0>         0.0870
     69 H27        -2.0625  -10.1170    5.3099 H         1 <0>         0.0906
     70 H28        -3.6243   -9.2756    5.1655 H         1 <0>         0.0953
     71 H29        -4.7545   -9.1133    3.0205 H         1 <0>         0.1251
     72 H30        -5.0962  -10.1282    0.8032 H         1 <0>         0.1235
     73 H31        -3.4003  -11.6512   -0.1283 H         1 <0>         0.1226
     74 H32        -1.3623  -12.1586    1.1572 H         1 <0>         0.1219
     75 H33        -1.0167  -11.1371    3.3709 H         1 <0>         0.1184
     76 H34         1.9228   -1.7151    3.1285 H         1 <0>         0.3883
     77 H35         5.4376   -4.1883    4.1564 H         1 <0>         0.4362
@<TRIPOS>BOND
     1    1    6 ar
     2    1    2 ar
     3    1   46 1
     4    2    3 ar
     5    2   47 1
     6    3    4 ar
     7    3   48 1
     8    4    5 ar
     9    4    7 1
    10    5    6 ar
    11    5   49 1
    12    6   50 1
    13    7    8 1
    14    7   51 1
    15    7   52 1
    16    8   14 am
    17    8    9 1
    18    9   10 1
    19    9   53 1
    20    9   54 1
    21   10   11 1
    22   10   55 1
    23   10   56 1
    24   11   12 1
    25   11   57 1
    26   11   77 1
    27   12   13 1
    28   12   14 1
    29   12   16 1
    30   14   15 2
    31   16   17 1
    32   16   18 1
    33   16   45 1
    34   18   19 1
    35   18   20 1
    36   18   29 1
    37   20   21 1
    38   20   58 1
    39   20   59 1
    40   21   26 ar
    41   21   22 ar
    42   22   23 ar
    43   22   60 1
    44   23   24 ar
    45   23   28 1
    46   24   25 ar
    47   24   61 1
    48   25   26 ar
    49   25   27 1
    50   26   62 1
    51   29   30 am
    52   29   63 1
    53   30   31 2
    54   30   32 1
    55   32   37 1
    56   32   33 1
    57   32   64 1
    58   33   34 1
    59   33   65 1
    60   33   66 1
    61   34   35 2
    62   34   36 am
    63   36   37 1
    64   36   38 1
    65   37   67 1
    66   37   68 1
    67   38   39 1
    68   38   69 1
    69   38   70 1
    70   39   44 ar
    71   39   40 ar
    72   40   41 ar
    73   40   71 1
    74   41   42 ar
    75   41   72 1
    76   42   43 ar
    77   42   73 1
    78   43   44 ar
    79   43   74 1
    80   44   75 1
    81   45   76 1
@<TRIPOS>MOLECULE
CHEMBL491659
   73    77     0     0     0
SMALL
USER_CHARGES

@<TRIPOS>ATOM
      1 C1         -0.0167    1.3781    0.0096 C.ar      1 <0>        -0.1149
      2 C2          1.1709    2.0855    0.0021 C.ar      1 <0>        -0.1247
      3 C3          2.3773    1.4107   -0.0130 C.ar      1 <0>        -0.1069
      4 C4          2.3960    0.0285   -0.0201 C.ar      1 <0>        -0.1098
      5 C5          1.2084   -0.6789   -0.0117 C.ar      1 <0>        -0.0921
      6 C6          0.0021   -0.0041    0.0020 C.ar      1 <0>        -0.1233
      7 C7          3.7112   -0.7071   -0.0376 C.3       1 <0>         0.1509
      8 N1          4.1518   -0.9524    1.3379 N.am      1 <0>        -0.5968
      9 C8          4.9829    0.0530    1.9938 C.3       1 <0>         0.1144
     10 C9          5.6942   -0.5612    3.2010 C.3       1 <0>         0.0392
     11 N2          4.6993   -1.2598    4.0308 N.3       1 <0>        -0.6735
     12 C10         4.2024   -2.4516    3.3302 C.3       1 <0>         0.0415
     13 H1          4.9942   -3.1992    3.2819 H         1 <0>         0.0793
     14 C11         3.7705   -2.0846    1.9385 C.2       1 <0>         0.5238
     15 O1          3.0498   -2.8493    1.3330 O.2       1 <0>        -0.5145
     16 C12         3.0066   -3.0268    4.0919 C.3       1 <0>         0.1247
     17 H2          2.2154   -2.2789    4.1443 H         1 <0>         0.1193
     18 C13         3.4406   -3.4102    5.5081 C.3       1 <0>         0.1206
     19 H3          3.8921   -2.5464    5.9961 H         1 <0>         0.1074
     20 C14         4.4613   -4.5478    5.4384 C.3       1 <0>        -0.1077
     21 C15         4.9802   -4.8426    6.8221 C.ar      1 <0>        -0.0058
     22 C16         6.0930   -4.1758    7.2989 C.ar      1 <0>        -0.1522
     23 C17         6.5710   -4.4462    8.5700 C.ar      1 <0>         0.1412
     24 C18         5.9337   -5.3844    9.3635 C.ar      1 <0>        -0.1923
     25 C19         4.8190   -6.0513    8.8852 C.ar      1 <0>         0.1390
     26 C20         4.3397   -5.7755    7.6156 C.ar      1 <0>        -0.1572
     27 F1          4.1959   -6.9672    9.6585 F         1 <0>        -0.1325
     28 F2          7.6593   -3.7949    9.0355 F         1 <0>        -0.1320
     29 N3          2.2720   -3.8489    6.2750 N.am      1 <0>        -0.7167
     30 C21         2.2746   -3.7558    7.6195 C.2       1 <0>         0.5283
     31 O2          3.2444   -3.3089    8.1946 O.2       1 <0>        -0.5149
     32 C22         1.0725   -4.2071    8.4084 C.3       1 <0>        -0.1249
     33 C23        -0.1396   -3.2833    8.1470 C.3       1 <0>        -0.1439
     34 C24        -0.8302   -3.1885    9.4896 C.2       1 <0>         0.5201
     35 O3         -1.9642   -2.7940    9.6612 O.2       1 <0>        -0.5221
     36 N4         -0.0043   -3.6054   10.4647 N.am      1 <0>        -0.6155
     37 C25         1.2990   -4.0083    9.9235 C.3       1 <0>         0.1184
     38 C26        -0.3595   -3.6516   11.8853 C.3       1 <0>         0.1572
     39 C27        -0.9680   -5.0162   12.2146 C.3       1 <0>        -0.1760
     40 C28        -2.4258   -5.0463   12.6783 C.3       1 <0>        -0.1720
     41 C29        -1.2989   -5.3071   13.6798 C.3       1 <0>        -0.1738
     42 O4          2.5218   -4.1864    3.4119 O.3       1 <0>        -0.5284
     43 H4         -0.9591    1.9053    0.0259 H         1 <0>         0.1210
     44 H5          1.1563    3.1654    0.0076 H         1 <0>         0.1213
     45 H6          3.3051    1.9634   -0.0196 H         1 <0>         0.1185
     46 H7          1.2231   -1.7588   -0.0176 H         1 <0>         0.1291
     47 H8         -0.9258   -0.5567    0.0082 H         1 <0>         0.1216
     48 H9          3.5884   -1.6586   -0.5549 H         1 <0>         0.0951
     49 H10         4.4573   -0.1052   -0.5563 H         1 <0>         0.0856
     50 H11         5.7251    0.4253    1.2877 H         1 <0>         0.0813
     51 H12         4.3555    0.8801    2.3260 H         1 <0>         0.0753
     52 H13         6.4480   -1.2704    2.8592 H         1 <0>         0.0472
     53 H14         6.1690    0.2270    3.7854 H         1 <0>         0.1023
     54 H15         5.0859   -1.5039    4.9302 H         1 <0>         0.3537
     55 H16         3.9842   -5.4395    5.0316 H         1 <0>         0.0906
     56 H17         5.2901   -4.2534    4.7946 H         1 <0>         0.0878
     57 H18         6.5901   -3.4438    6.6796 H         1 <0>         0.1349
     58 H19         6.3060   -5.5962   10.3549 H         1 <0>         0.1449
     59 H20         3.4674   -6.2925    7.2438 H         1 <0>         0.1337
     60 H21         1.4963   -4.2063    5.8151 H         1 <0>         0.4091
     61 H22         0.8281   -5.2453    8.1834 H         1 <0>         0.1169
     62 H23         0.1946   -2.2989    7.8195 H         1 <0>         0.1090
     63 H24        -0.8049   -3.7272    7.4063 H         1 <0>         0.1116
     64 H25         1.6255   -4.9419   10.3818 H         1 <0>         0.0838
     65 H26         2.0372   -3.2248   10.0949 H         1 <0>         0.0931
     66 H27         0.5351   -3.4976   12.4887 H         1 <0>         0.0850
     67 H28        -1.0848   -2.8680   12.1041 H         1 <0>         0.0858
     68 H29        -0.6167   -5.8475   11.6034 H         1 <0>         0.1053
     69 H30        -2.9513   -4.0939   12.7487 H         1 <0>         0.0970
     70 H31        -3.0339   -5.8975   12.3720 H         1 <0>         0.0932
     71 H32        -1.1657   -6.3298   14.0324 H         1 <0>         0.0963
     72 H33        -1.0831   -4.5263   14.4091 H         1 <0>         0.0964
     73 H34         3.1745   -4.8949    3.3284 H         1 <0>         0.3725
@<TRIPOS>BOND
     1    1    6 ar
     2    1    2 ar
     3    1   43 1
     4    2    3 ar
     5    2   44 1
     6    3    4 ar
     7    3   45 1
     8    4    5 ar
     9    4    7 1
    10    5    6 ar
    11    5   46 1
    12    6   47 1
    13    7    8 1
    14    7   48 1
    15    7   49 1
    16    8   14 am
    17    8    9 1
    18    9   10 1
    19    9   50 1
    20    9   51 1
    21   10   11 1
    22   10   52 1
    23   10   53 1
    24   11   12 1
    25   11   54 1
    26   12   13 1
    27   12   14 1
    28   12   16 1
    29   14   15 2
    30   16   17 1
    31   16   18 1
    32   16   42 1
    33   18   19 1
    34   18   20 1
    35   18   29 1
    36   20   21 1
    37   20   55 1
    38   20   56 1
    39   21   26 ar
    40   21   22 ar
    41   22   23 ar
    42   22   57 1
    43   23   24 ar
    44   23   28 1
    45   24   25 ar
    46   24   58 1
    47   25   26 ar
    48   25   27 1
    49   26   59 1
    50   29   30 am
    51   29   60 1
    52   30   31 2
    53   30   32 1
    54   32   37 1
    55   32   33 1
    56   32   61 1
    57   33   34 1
    58   33   62 1
    59   33   63 1
    60   34   35 2
    61   34   36 am
    62   36   37 1
    63   36   38 1
    64   37   64 1
    65   37   65 1
    66   38   39 1
    67   38   66 1
    68   38   67 1
    69   39   41 1
    70   39   40 1
    71   39   68 1
    72   40   41 1
    73   40   69 1
    74   40   70 1
    75   41   71 1
    76   41   72 1
    77   42   73 1
@<TRIPOS>MOLECULE
CHEMBL491659__1
   74    78     0     0     0
SMALL
USER_CHARGES

@<TRIPOS>ATOM
      1 C1          6.9967   -1.1414    9.2014 C.ar      1 <0>        -0.1040
      2 C2          8.0867   -1.4428    8.4065 C.ar      1 <0>        -0.1212
      3 C3          8.0529   -1.1648    7.0528 C.ar      1 <0>        -0.1073
      4 C4          6.9289   -0.5859    6.4940 C.ar      1 <0>        -0.1283
      5 C5          5.8385   -0.2853    7.2887 C.ar      1 <0>        -0.0940
      6 C6          5.8729   -0.5620    8.6427 C.ar      1 <0>        -0.1198
      7 C7          6.8924   -0.2819    5.0184 C.3       1 <0>         0.1540
      8 N1          6.3566   -1.4376    4.2948 N.am      1 <0>        -0.6023
      9 C8          7.2846   -2.4644    3.8273 C.3       1 <0>         0.0791
     10 C9          6.6129   -3.3237    2.7545 C.3       1 <0>        -0.0200
     11 N2          5.3119   -3.7855    3.2628 N.4       1 <0>        -0.5065
     12 C10         4.3955   -2.6406    3.3338 C.3       1 <0>        -0.0222
     13 H1          4.1528   -2.3090    2.3243 H         1 <0>         0.1744
     14 C11         5.0362   -1.5135    4.0932 C.2       1 <0>         0.5019
     15 O1          4.3283   -0.6347    4.5375 O.2       1 <0>        -0.4543
     16 C12         3.1118   -3.0622    4.0516 C.3       1 <0>         0.1014
     17 H2          3.3394   -3.3078    5.0888 H         1 <0>         0.1358
     18 C13         2.5175   -4.2883    3.3556 C.3       1 <0>         0.1063
     19 H3          3.2664   -5.0789    3.3103 H         1 <0>         0.0937
     20 C14         2.0877   -3.9109    1.9366 C.3       1 <0>        -0.1117
     21 C15         1.6036   -5.1418    1.2142 C.ar      1 <0>        -0.0214
     22 C16         2.4950   -5.9162    0.4960 C.ar      1 <0>        -0.1597
     23 C17         2.0513   -7.0471   -0.1685 C.ar      1 <0>         0.1465
     24 C18         0.7146   -7.4022   -0.1128 C.ar      1 <0>        -0.1848
     25 C19        -0.1772   -6.6261    0.6072 C.ar      1 <0>         0.1480
     26 C20         0.2698   -5.4984    1.2752 C.ar      1 <0>        -0.1563
     27 F1         -1.4821   -6.9715    0.6625 F         1 <0>        -0.1254
     28 F2          2.9226   -7.8035   -0.8713 F         1 <0>        -0.1275
     29 N3          1.3533   -4.7610    4.1090 N.am      1 <0>        -0.7191
     30 C21         0.9716   -6.0505    4.0205 C.2       1 <0>         0.5342
     31 O2          1.5919   -6.8196    3.3171 O.2       1 <0>        -0.5090
     32 C22        -0.2259   -6.5368    4.7955 C.3       1 <0>        -0.1261
     33 C23         0.0532   -6.5154    6.3162 C.3       1 <0>        -0.1427
     34 C24        -0.6492   -7.7488    6.8396 C.2       1 <0>         0.5173
     35 O3         -0.9137   -7.9556    8.0051 O.2       1 <0>        -0.5146
     36 N4         -0.9378   -8.5820    5.8251 N.am      1 <0>        -0.6146
     37 C25        -0.4751   -8.0401    4.5421 C.3       1 <0>         0.1182
     38 C26        -1.6258   -9.8661    5.9802 C.3       1 <0>         0.1567
     39 C27        -3.1358   -9.6542    5.8538 C.3       1 <0>        -0.1791
     40 C28        -3.9974   -9.9617    7.0802 C.3       1 <0>        -0.1712
     41 C29        -4.0274  -10.8974    5.8701 C.3       1 <0>        -0.1721
     42 O4          2.1694   -1.9886    4.0121 O.3       1 <0>        -0.4996
     43 H4          7.0214   -1.3627   10.2582 H         1 <0>         0.1270
     44 H5          8.9649   -1.8951    8.8431 H         1 <0>         0.1266
     45 H6          8.9048   -1.3997    6.4319 H         1 <0>         0.1209
     46 H7          4.9605    0.1673    6.8522 H         1 <0>         0.1290
     47 H8          5.0212   -0.3268    9.2637 H         1 <0>         0.1267
     48 H9          6.2554    0.5847    4.8416 H         1 <0>         0.1061
     49 H10         7.9017   -0.0689    4.6662 H         1 <0>         0.1002
     50 H11         8.1703   -1.9877    3.4073 H         1 <0>         0.1308
     51 H12         7.5781   -3.0960    4.6658 H         1 <0>         0.1009
     52 H13         6.4630   -2.7306    1.8523 H         1 <0>         0.1462
     53 H14         7.2429   -4.1839    2.5280 H         1 <0>         0.1628
     54 H15         4.9337   -4.4829    2.6394 H         1 <0>         0.4368
     55 H16         1.2829   -3.1772    1.9837 H         1 <0>         0.1037
     56 H17         2.9363   -3.4855    1.4009 H         1 <0>         0.0852
     57 H18         3.5379   -5.6390    0.4526 H         1 <0>         0.1305
     58 H19         0.3675   -8.2839   -0.6311 H         1 <0>         0.1508
     59 H20        -0.4250   -4.8952    1.8407 H         1 <0>         0.1371
     60 H21         0.8573   -4.1459    4.6716 H         1 <0>         0.4171
     61 H22        -1.1106   -5.9483    4.5523 H         1 <0>         0.1219
     62 H23         1.1244   -6.5760    6.5083 H         1 <0>         0.1055
     63 H24        -0.3662   -5.6167    6.7684 H         1 <0>         0.1130
     64 H25        -1.2418   -8.1719    3.7785 H         1 <0>         0.0862
     65 H26         0.4498   -8.5297    4.2373 H         1 <0>         0.0918
     66 H27        -1.2894  -10.5545    5.2050 H         1 <0>         0.0860
     67 H28        -1.3984  -10.2840    6.9609 H         1 <0>         0.0879
     68 H29        -3.4423   -8.8233    5.2185 H         1 <0>         0.1046
     69 H30        -3.4885  -10.3149    7.9771 H         1 <0>         0.0977
     70 H31        -4.8710   -9.3329    7.2520 H         1 <0>         0.0945
     71 H32        -4.9208  -10.8843    5.2457 H         1 <0>         0.0979
     72 H33        -3.5383  -11.8663    5.9708 H         1 <0>         0.0975
     73 H34         1.9204   -1.7166    3.1182 H         1 <0>         0.3880
     74 H35         5.4300   -4.1814    4.1834 H         1 <0>         0.4363
@<TRIPOS>BOND
     1    1    6 ar
     2    1    2 ar
     3    1   43 1
     4    2    3 ar
     5    2   44 1
     6    3    4 ar
     7    3   45 1
     8    4    5 ar
     9    4    7 1
    10    5    6 ar
    11    5   46 1
    12    6   47 1
    13    7    8 1
    14    7   48 1
    15    7   49 1
    16    8   14 am
    17    8    9 1
    18    9   10 1
    19    9   50 1
    20    9   51 1
    21   10   11 1
    22   10   52 1
    23   10   53 1
    24   11   12 1
    25   11   54 1
    26   11   74 1
    27   12   13 1
    28   12   14 1
    29   12   16 1
    30   14   15 2
    31   16   17 1
    32   16   18 1
    33   16   42 1
    34   18   19 1
    35   18   20 1
    36   18   29 1
    37   20   21 1
    38   20   55 1
    39   20   56 1
    40   21   26 ar
    41   21   22 ar
    42   22   23 ar
    43   22   57 1
    44   23   24 ar
    45   23   28 1
    46   24   25 ar
    47   24   58 1
    48   25   26 ar
    49   25   27 1
    50   26   59 1
    51   29   30 am
    52   29   60 1
    53   30   31 2
    54   30   32 1
    55   32   37 1
    56   32   33 1
    57   32   61 1
    58   33   34 1
    59   33   62 1
    60   33   63 1
    61   34   35 2
    62   34   36 am
    63   36   37 1
    64   36   38 1
    65   37   64 1
    66   37   65 1
    67   38   39 1
    68   38   66 1
    69   38   67 1
    70   39   41 1
    71   39   40 1
    72   39   68 1
    73   40   41 1
    74   40   69 1
    75   40   70 1
    76   41   71 1
    77   41   72 1
    78   42   73 1
@<TRIPOS>MOLECULE
CHEMBL491659__2
   73    77     0     0     0
SMALL
USER_CHARGES

@<TRIPOS>ATOM
      1 C1         -0.0167    1.3781    0.0096 C.ar      1 <0>        -0.1151
      2 C2          1.1709    2.0855    0.0021 C.ar      1 <0>        -0.1248
      3 C3          2.3773    1.4107   -0.0130 C.ar      1 <0>        -0.1068
      4 C4          2.3960    0.0285   -0.0201 C.ar      1 <0>        -0.1095
      5 C5          1.2084   -0.6789   -0.0117 C.ar      1 <0>        -0.0921
      6 C6          0.0021   -0.0041    0.0020 C.ar      1 <0>        -0.1234
      7 C7          3.7112   -0.7071   -0.0376 C.3       1 <0>         0.1507
      8 N1          4.1518   -0.9524    1.3379 N.am      1 <0>        -0.5969
      9 C8          4.9829    0.0530    1.9938 C.3       1 <0>         0.1145
     10 C9          5.6942   -0.5612    3.2010 C.3       1 <0>         0.0391
     11 N2          4.6993   -1.2598    4.0308 N.3       1 <0>        -0.6734
     12 C10         4.2024   -2.4516    3.3302 C.3       1 <0>         0.0413
     13 H1          4.9942   -3.1992    3.2819 H         1 <0>         0.0794
     14 C11         3.7705   -2.0846    1.9385 C.2       1 <0>         0.5238
     15 O1          3.0498   -2.8493    1.3330 O.2       1 <0>        -0.5144
     16 C12         3.0066   -3.0268    4.0919 C.3       1 <0>         0.1251
     17 H2          2.2154   -2.2789    4.1443 H         1 <0>         0.1193
     18 C13         3.4406   -3.4102    5.5081 C.3       1 <0>         0.1208
     19 H3          3.8921   -2.5464    5.9961 H         1 <0>         0.1079
     20 C14         4.4613   -4.5478    5.4384 C.3       1 <0>        -0.1085
     21 C15         4.9802   -4.8426    6.8221 C.ar      1 <0>        -0.0042
     22 C16         6.0930   -4.1758    7.2989 C.ar      1 <0>        -0.1526
     23 C17         6.5710   -4.4462    8.5700 C.ar      1 <0>         0.1424
     24 C18         5.9337   -5.3844    9.3635 C.ar      1 <0>        -0.1930
     25 C19         4.8190   -6.0513    8.8852 C.ar      1 <0>         0.1399
     26 C20         4.3397   -5.7755    7.6156 C.ar      1 <0>        -0.1614
     27 F1          4.1959   -6.9672    9.6585 F         1 <0>        -0.1303
     28 F2          7.6593   -3.7949    9.0355 F         1 <0>        -0.1317
     29 N3          2.2720   -3.8489    6.2750 N.am      1 <0>        -0.7169
     30 C21         2.2746   -3.7558    7.6195 C.2       1 <0>         0.5278
     31 O2          3.2444   -3.3089    8.1946 O.2       1 <0>        -0.5147
     32 C22         1.0725   -4.2071    8.4084 C.3       1 <0>        -0.1256
     33 C23         0.8929   -5.7401    8.3149 C.3       1 <0>        -0.1480
     34 C24         0.4111   -6.1418    9.6916 C.2       1 <0>         0.5221
     35 O3         -0.1108   -7.2025    9.9627 O.2       1 <0>        -0.5208
     36 N4          0.6459   -5.1523   10.5705 N.am      1 <0>        -0.6146
     37 C25         1.2990   -4.0083    9.9235 C.3       1 <0>         0.1185
     38 C26         0.2949   -5.2085   11.9917 C.3       1 <0>         0.1584
     39 C27         1.4645   -5.7974   12.7830 C.3       1 <0>        -0.1751
     40 C28         1.2325   -7.1279   13.5018 C.3       1 <0>        -0.1712
     41 C29         1.3399   -5.8317   14.3075 C.3       1 <0>        -0.1741
     42 O4          2.5218   -4.1864    3.4119 O.3       1 <0>        -0.5285
     43 H4         -0.9591    1.9053    0.0259 H         1 <0>         0.1209
     44 H5          1.1563    3.1654    0.0076 H         1 <0>         0.1213
     45 H6          3.3051    1.9634   -0.0196 H         1 <0>         0.1186
     46 H7          1.2231   -1.7588   -0.0176 H         1 <0>         0.1291
     47 H8         -0.9258   -0.5567    0.0082 H         1 <0>         0.1215
     48 H9          3.5884   -1.6586   -0.5549 H         1 <0>         0.0952
     49 H10         4.4573   -0.1052   -0.5563 H         1 <0>         0.0857
     50 H11         5.7251    0.4253    1.2877 H         1 <0>         0.0813
     51 H12         4.3555    0.8801    2.3260 H         1 <0>         0.0752
     52 H13         6.4480   -1.2704    2.8592 H         1 <0>         0.0472
     53 H14         6.1690    0.2270    3.7854 H         1 <0>         0.1023
     54 H15         5.0859   -1.5039    4.9302 H         1 <0>         0.3538
     55 H16         3.9842   -5.4395    5.0316 H         1 <0>         0.0907
     56 H17         5.2901   -4.2534    4.7946 H         1 <0>         0.0884
     57 H18         6.5901   -3.4438    6.6796 H         1 <0>         0.1354
     58 H19         6.3060   -5.5962   10.3549 H         1 <0>         0.1443
     59 H20         3.4674   -6.2925    7.2438 H         1 <0>         0.1335
     60 H21         1.4963   -4.2063    5.8151 H         1 <0>         0.4092
     61 H22         0.1734   -3.6876    8.0769 H         1 <0>         0.1199
     62 H23         0.1468   -5.9916    7.5612 H         1 <0>         0.1123
     63 H24         1.8437   -6.2224    8.0878 H         1 <0>         0.1056
     64 H25         2.3656   -4.0062   10.1483 H         1 <0>         0.0907
     65 H26         0.8413   -3.0760   10.2542 H         1 <0>         0.0854
     66 H27         0.0813   -4.2027   12.3533 H         1 <0>         0.0845
     67 H28        -0.5860   -5.8368   12.1238 H         1 <0>         0.0856
     68 H29         2.4541   -5.6178   12.3628 H         1 <0>         0.1053
     69 H30         0.2466   -7.5838   13.4109 H         1 <0>         0.0967
     70 H31         2.0696   -7.8241   13.5545 H         1 <0>         0.0928
     71 H32         2.2477   -5.6752   14.8903 H         1 <0>         0.0956
     72 H33         0.4247   -5.4349   14.7468 H         1 <0>         0.0960
     73 H34         3.1745   -4.8949    3.3284 H         1 <0>         0.3728
@<TRIPOS>BOND
     1    1    6 ar
     2    1    2 ar
     3    1   43 1
     4    2    3 ar
     5    2   44 1
     6    3    4 ar
     7    3   45 1
     8    4    5 ar
     9    4    7 1
    10    5    6 ar
    11    5   46 1
    12    6   47 1
    13    7    8 1
    14    7   48 1
    15    7   49 1
    16    8   14 am
    17    8    9 1
    18    9   10 1
    19    9   50 1
    20    9   51 1
    21   10   11 1
    22   10   52 1
    23   10   53 1
    24   11   12 1
    25   11   54 1
    26   12   13 1
    27   12   14 1
    28   12   16 1
    29   14   15 2
    30   16   17 1
    31   16   18 1
    32   16   42 1
    33   18   19 1
    34   18   20 1
    35   18   29 1
    36   20   21 1
    37   20   55 1
    38   20   56 1
    39   21   26 ar
    40   21   22 ar
    41   22   23 ar
    42   22   57 1
    43   23   24 ar
    44   23   28 1
    45   24   25 ar
    46   24   58 1
    47   25   26 ar
    48   25   27 1
    49   26   59 1
    50   29   30 am
    51   29   60 1
    52   30   31 2
    53   30   32 1
    54   32   37 1
    55   32   33 1
    56   32   61 1
    57   33   34 1
    58   33   62 1
    59   33   63 1
    60   34   35 2
    61   34   36 am
    62   36   37 1
    63   36   38 1
    64   37   64 1
    65   37   65 1
    66   38   39 1
    67   38   66 1
    68   38   67 1
    69   39   41 1
    70   39   40 1
    71   39   68 1
    72   40   41 1
    73   40   69 1
    74   40   70 1
    75   41   71 1
    76   41   72 1
    77   42   73 1
@<TRIPOS>MOLECULE
CHEMBL491659__3
   74    78     0     0     0
SMALL
USER_CHARGES

@<TRIPOS>ATOM
      1 C1          7.0563   -1.1614    9.1659 C.ar      1 <0>        -0.1043
      2 C2          8.1384   -1.4632    8.3603 C.ar      1 <0>        -0.1213
      3 C3          8.0925   -1.1824    7.0075 C.ar      1 <0>        -0.1072
      4 C4          6.9645   -0.6002    6.4603 C.ar      1 <0>        -0.1279
      5 C5          5.8821   -0.2993    7.2657 C.ar      1 <0>        -0.0940
      6 C6          5.9285   -0.5788    8.6187 C.ar      1 <0>        -0.1200
      7 C7          6.9149   -0.2932    4.9857 C.3       1 <0>         0.1538
      8 N1          6.3702   -1.4464    4.2648 N.am      1 <0>        -0.6024
      9 C8          7.2920   -2.4739    3.7867 C.3       1 <0>         0.0792
     10 C9          6.6088   -3.3298    2.7183 C.3       1 <0>        -0.0201
     11 N2          5.3117   -3.7903    3.2378 N.4       1 <0>        -0.5063
     12 C10         4.3981   -2.6438    3.3196 C.3       1 <0>        -0.0223
     13 H1          4.1467   -2.3097    2.3130 H         1 <0>         0.1745
     14 C11         5.0479   -1.5195    4.0752 C.2       1 <0>         0.5019
     15 O1          4.3458   -0.6403    4.5280 O.2       1 <0>        -0.4543
     16 C12         3.1203   -3.0645    4.0484 C.3       1 <0>         0.1019
     17 H2          3.3570   -3.3125    5.0830 H         1 <0>         0.1357
     18 C13         2.5175   -4.2883    3.3556 C.3       1 <0>         0.1062
     19 H3          3.2615   -5.0835    3.3105 H         1 <0>         0.0946
     20 C14         2.0877   -3.9109    1.9366 C.3       1 <0>        -0.1128
     21 C15         1.6036   -5.1418    1.2142 C.ar      1 <0>        -0.0198
     22 C16         2.4950   -5.9162    0.4960 C.ar      1 <0>        -0.1605
     23 C17         2.0513   -7.0471   -0.1685 C.ar      1 <0>         0.1478
     24 C18         0.7146   -7.4022   -0.1128 C.ar      1 <0>        -0.1855
     25 C19        -0.1772   -6.6261    0.6072 C.ar      1 <0>         0.1491
     26 C20         0.2698   -5.4984    1.2752 C.ar      1 <0>        -0.1603
     27 F1         -1.4821   -6.9715    0.6625 F         1 <0>        -0.1232
     28 F2          2.9226   -7.8035   -0.8713 F         1 <0>        -0.1273
     29 N3          1.3517   -4.7525    4.1118 N.am      1 <0>        -0.7193
     30 C21         0.9620   -6.0399    4.0262 C.2       1 <0>         0.5333
     31 O2          1.5765   -6.8140    3.3233 O.2       1 <0>        -0.5087
     32 C22        -0.2371   -6.5175    4.8040 C.3       1 <0>        -0.1261
     33 C23        -1.5375   -5.8792    4.2632 C.3       1 <0>        -0.1482
     34 C24        -2.5663   -6.9829    4.3734 C.2       1 <0>         0.5197
     35 O3         -3.7670   -6.8213    4.3184 O.2       1 <0>        -0.5122
     36 N4         -1.9559   -8.1687    4.5408 N.am      1 <0>        -0.6146
     37 C25        -0.4959   -8.0197    4.5538 C.3       1 <0>         0.1188
     38 C26        -2.6578   -9.4458    4.6910 C.3       1 <0>         0.1576
     39 C27        -2.8701  -10.0763    3.3132 C.3       1 <0>        -0.1775
     40 C28        -4.3117  -10.2622    2.8359 C.3       1 <0>        -0.1705
     41 C29        -3.4850  -11.4764    3.2641 C.3       1 <0>        -0.1726
     42 O4          2.1796   -1.9892    4.0196 O.3       1 <0>        -0.4997
     43 H4          7.0904   -1.3849   10.2219 H         1 <0>         0.1269
     44 H5          9.0197   -1.9180    8.7878 H         1 <0>         0.1266
     45 H6          8.9382   -1.4175    6.3782 H         1 <0>         0.1210
     46 H7          5.0009    0.1559    6.8382 H         1 <0>         0.1291
     47 H8          5.0830   -0.3433    9.2481 H         1 <0>         0.1265
     48 H9          6.2779    0.5750    4.8166 H         1 <0>         0.1062
     49 H10         7.9213   -0.0812    4.6247 H         1 <0>         0.1002
     50 H11         8.1746   -1.9980    3.3595 H         1 <0>         0.1307
     51 H12         7.5920   -3.1078    4.6211 H         1 <0>         0.1008
     52 H13         6.4516   -2.7346    1.8188 H         1 <0>         0.1461
     53 H14         7.2351   -4.1907    2.4843 H         1 <0>         0.1629
     54 H15         4.9264   -4.4857    2.6165 H         1 <0>         0.4368
     55 H16         1.2829   -3.1772    1.9837 H         1 <0>         0.1039
     56 H17         2.9363   -3.4855    1.4009 H         1 <0>         0.0856
     57 H18         3.5379   -5.6390    0.4526 H         1 <0>         0.1310
     58 H19         0.3675   -8.2839   -0.6311 H         1 <0>         0.1502
     59 H20        -0.4250   -4.8952    1.8407 H         1 <0>         0.1368
     60 H21         0.8603   -4.1334    4.6740 H         1 <0>         0.4172
     61 H22        -0.1155   -6.3145    5.8680 H         1 <0>         0.1238
     62 H23        -1.8269   -5.0254    4.8759 H         1 <0>         0.1140
     63 H24        -1.4109   -5.5782    3.2232 H         1 <0>         0.1044
     64 H25        -0.0776   -8.3196    3.5929 H         1 <0>         0.0892
     65 H26        -0.0630   -8.6160    5.3570 H         1 <0>         0.0870
     66 H27        -2.0625  -10.1171    5.3099 H         1 <0>         0.0858
     67 H28        -3.6243   -9.2756    5.1654 H         1 <0>         0.0880
     68 H29        -2.1189   -9.8299    2.5627 H         1 <0>         0.1035
     69 H30        -5.1090   -9.9355    3.5034 H         1 <0>         0.0979
     70 H31        -4.5093  -10.1381    1.7711 H         1 <0>         0.0937
     71 H32        -3.1388  -12.1510    2.4811 H         1 <0>         0.0968
     72 H33        -3.7385  -11.9483    4.2134 H         1 <0>         0.0975
     73 H34         1.9228   -1.7151    3.1285 H         1 <0>         0.3883
     74 H35         5.4376   -4.1883    4.1564 H         1 <0>         0.4362
@<TRIPOS>BOND
     1    1    6 ar
     2    1    2 ar
     3    1   43 1
     4    2    3 ar
     5    2   44 1
     6    3    4 ar
     7    3   45 1
     8    4    5 ar
     9    4    7 1
    10    5    6 ar
    11    5   46 1
    12    6   47 1
    13    7    8 1
    14    7   48 1
    15    7   49 1
    16    8   14 am
    17    8    9 1
    18    9   10 1
    19    9   50 1
    20    9   51 1
    21   10   11 1
    22   10   52 1
    23   10   53 1
    24   11   12 1
    25   11   54 1
    26   11   74 1
    27   12   13 1
    28   12   14 1
    29   12   16 1
    30   14   15 2
    31   16   17 1
    32   16   18 1
    33   16   42 1
    34   18   19 1
    35   18   20 1
    36   18   29 1
    37   20   21 1
    38   20   55 1
    39   20   56 1
    40   21   26 ar
    41   21   22 ar
    42   22   23 ar
    43   22   57 1
    44   23   24 ar
    45   23   28 1
    46   24   25 ar
    47   24   58 1
    48   25   26 ar
    49   25   27 1
    50   26   59 1
    51   29   30 am
    52   29   60 1
    53   30   31 2
    54   30   32 1
    55   32   37 1
    56   32   33 1
    57   32   61 1
    58   33   34 1
    59   33   62 1
    60   33   63 1
    61   34   35 2
    62   34   36 am
    63   36   37 1
    64   36   38 1
    65   37   64 1
    66   37   65 1
    67   38   39 1
    68   38   66 1
    69   38   67 1
    70   39   41 1
    71   39   40 1
    72   39   68 1
    73   40   41 1
    74   40   69 1
    75   40   70 1
    76   41   71 1
    77   41   72 1
    78   42   73 1
@<TRIPOS>MOLECULE
CHEMBL254272
   79    82     0     0     0
SMALL
USER_CHARGES

@<TRIPOS>ATOM
      1 C1         -0.0187    1.5258    0.0104 C.3       1 <0>        -0.1680
      2 C2          0.0021   -0.0041    0.0020 C.3       1 <0>         0.1210
      3 N1         -1.3723   -0.5112    0.0124 N.pl3     1 <0>        -0.7457
      4 C3         -1.6089   -1.8880    0.0073 C.ar      1 <0>         0.2368
      5 C4         -0.5417   -2.7744   -0.0019 C.ar      1 <0>        -0.1910
      6 C5         -0.7789   -4.1488   -0.0065 C.ar      1 <0>        -0.0595
      7 C6         -2.0893   -4.6274   -0.0020 C.ar      1 <0>        -0.1448
      8 C7         -3.1515   -3.7357    0.0072 C.ar      1 <0>         0.2209
      9 C8         -2.9118   -2.3677    0.0171 C.ar      1 <0>        -0.1998
     10 N2         -4.4641   -4.2140    0.0113 N.pl3     1 <0>        -0.9356
     11 C9         -5.5693   -3.4009   -0.5177 C.3       1 <0>         0.1002
     12 C10        -6.6262   -3.2098    0.5684 C.3       1 <0>        -0.1587
     13 C11        -7.2606   -4.5465    0.9455 C.3       1 <0>        -0.1153
     14 C12        -6.2455   -5.4047    1.7093 C.3       1 <0>        -0.6077
     15 S1         -4.8252   -5.7250    0.6088 S.o2      1 <0>         2.5832
     16 O1         -5.2330   -6.4817   -0.5227 O.2       1 <0>        -0.9376
     17 O2         -3.6853   -6.1039    1.3680 O.2       1 <0>        -0.9373
     18 C13         0.3562   -5.0967   -0.0168 C.2       1 <0>         0.5654
     19 O3          0.1479   -6.2942   -0.0208 O.2       1 <0>        -0.4978
     20 N3          1.6215   -4.6327   -0.0216 N.am      1 <0>        -0.7252
     21 C14         2.7460   -5.5716   -0.0318 C.3       1 <0>         0.1233
     22 H1          2.4885   -6.4532    0.5553 H         1 <0>         0.1132
     23 C15         3.0491   -5.9888   -1.4723 C.3       1 <0>        -0.0573
     24 C16         1.8802   -6.7606   -2.0283 C.2       1 <0>        -0.0229
     25 C17         0.8311   -6.2343   -2.6853 C.2       1 <0>        -0.1826
     26 C18        -0.0214   -7.3100   -3.0243 C.2       1 <0>        -0.2052
     27 C19         0.5577   -8.4294   -2.5541 C.2       1 <0>        -0.0236
     28 O4          1.7121   -8.0911   -1.9568 O.3       1 <0>        -0.1738
     29 C20         3.9787   -4.8977    0.5741 C.3       1 <0>         0.0770
     30 H2          3.7356   -4.5215    1.5678 H         1 <0>         0.1368
     31 C21         5.1167   -5.9150    0.6782 C.3       1 <0>        -0.0487
     32 N4          6.2596   -5.3023    1.3684 N.4       1 <0>        -0.5034
     33 C22         7.3523   -6.2791    1.4684 C.3       1 <0>         0.0469
     34 C23         8.5247   -5.6505    2.1764 C.ar      1 <0>        -0.1269
     35 C24         9.4923   -4.9808    1.4501 C.ar      1 <0>        -0.1326
     36 C25        10.5691   -4.4031    2.0966 C.ar      1 <0>        -0.0713
     37 C26        10.6812   -4.4941    3.4707 C.ar      1 <0>        -0.1763
     38 C27         9.7120   -5.1653    4.2016 C.ar      1 <0>         0.1376
     39 C28         8.6291   -5.7390    3.5509 C.ar      1 <0>        -0.1308
     40 O5          9.8201   -5.2561    5.5532 O.3       1 <0>        -0.3115
     41 C29        10.9581   -4.6368    6.1561 C.3       1 <0>         0.0218
     42 O6          4.3859   -3.8112   -0.2601 O.3       1 <0>        -0.5487
     43 H3          1.0039    1.9031    0.0027 H         1 <0>         0.0744
     44 H4         -0.5459    1.8868   -0.8726 H         1 <0>         0.0638
     45 H5         -0.5289    1.8773    0.9072 H         1 <0>         0.0632
     46 H6          0.5123   -0.3556   -0.8948 H         1 <0>         0.0595
     47 H7          0.5293   -0.3651    0.8851 H         1 <0>         0.0583
     48 H8         -2.1181    0.1091    0.0229 H         1 <0>         0.4029
     49 H9          0.4715   -2.4006   -0.0057 H         1 <0>         0.1230
     50 H10        -2.2764   -5.6911   -0.0059 H         1 <0>         0.1462
     51 H11        -3.7407   -1.6755    0.0284 H         1 <0>         0.1328
     52 H12        -5.1882   -2.4283   -0.8289 H         1 <0>         0.1017
     53 H13        -6.0154   -3.9071   -1.3738 H         1 <0>         0.0910
     54 H14        -6.1592   -2.7724    1.4508 H         1 <0>         0.0814
     55 H15        -7.4004   -2.5359    0.2014 H         1 <0>         0.1008
     56 H16        -8.1322   -4.3691    1.5756 H         1 <0>         0.0951
     57 H17        -7.5692   -5.0695    0.0403 H         1 <0>         0.0867
     58 H18        -5.9110   -4.8727    2.5998 H         1 <0>         0.1382
     59 H19        -6.7062   -6.3498    1.9968 H         1 <0>         0.1394
     60 H20         1.7877   -3.6770   -0.0184 H         1 <0>         0.4065
     61 H21         3.2196   -5.1000   -2.0797 H         1 <0>         0.0997
     62 H22         3.9400   -6.6166   -1.4889 H         1 <0>         0.0878
     63 H23         0.6704   -5.1903   -2.9102 H         1 <0>         0.1370
     64 H24        -0.9581   -7.2455   -3.5580 H         1 <0>         0.1453
     65 H25         0.1633   -9.4307   -2.6450 H         1 <0>         0.2015
     66 H26         4.7764   -6.7846    1.2405 H         1 <0>         0.1504
     67 H27         5.4198   -6.2248   -0.3219 H         1 <0>         0.1429
     68 H28         6.5747   -4.4974    0.8480 H         1 <0>         0.4323
     69 H29         7.0119   -7.1487    2.0306 H         1 <0>         0.1415
     70 H30         7.6553   -6.5889    0.4683 H         1 <0>         0.1419
     71 H31         9.4068   -4.9092    0.3758 H         1 <0>         0.1338
     72 H32        11.3234   -3.8806    1.5271 H         1 <0>         0.1394
     73 H33        11.5230   -4.0432    3.9753 H         1 <0>         0.1408
     74 H34         7.8707   -6.2581    4.1182 H         1 <0>         0.1400
     75 H35        11.8687   -5.0850    5.7588 H         1 <0>         0.0626
     76 H36        10.9513   -3.5697    5.9339 H         1 <0>         0.0619
     77 H37        10.9221   -4.7833    7.2356 H         1 <0>         0.1108
     78 H38         4.6180   -4.0730   -1.1616 H         1 <0>         0.3912
     79 H39         5.9791   -5.0155    2.2942 H         1 <0>         0.4297
@<TRIPOS>BOND
     1    1    2 1
     2    1   43 1
     3    1   44 1
     4    1   45 1
     5    2    3 1
     6    2   46 1
     7    2   47 1
     8    3    4 1
     9    3   48 1
    10    4    9 ar
    11    4    5 ar
    12    5    6 ar
    13    5   49 1
    14    6    7 ar
    15    6   18 1
    16    7    8 ar
    17    7   50 1
    18    8    9 ar
    19    8   10 1
    20    9   51 1
    21   10   15 1
    22   10   11 1
    23   11   12 1
    24   11   52 1
    25   11   53 1
    26   12   13 1
    27   12   54 1
    28   12   55 1
    29   13   14 1
    30   13   56 1
    31   13   57 1
    32   14   15 1
    33   14   58 1
    34   14   59 1
    35   15   16 2
    36   15   17 2
    37   18   19 2
    38   18   20 am
    39   20   21 1
    40   20   60 1
    41   21   22 1
    42   21   23 1
    43   21   29 1
    44   23   24 1
    45   23   61 1
    46   23   62 1
    47   24   28 1
    48   24   25 2
    49   25   26 1
    50   25   63 1
    51   26   27 2
    52   26   64 1
    53   27   28 1
    54   27   65 1
    55   29   30 1
    56   29   31 1
    57   29   42 1
    58   31   32 1
    59   31   66 1
    60   31   67 1
    61   32   33 1
    62   32   68 1
    63   32   79 1
    64   33   34 1
    65   33   69 1
    66   33   70 1
    67   34   39 ar
    68   34   35 ar
    69   35   36 ar
    70   35   71 1
    71   36   37 ar
    72   36   72 1
    73   37   38 ar
    74   37   73 1
    75   38   39 ar
    76   38   40 1
    77   39   74 1
    78   40   41 1
    79   41   75 1
    80   41   76 1
    81   41   77 1
    82   42   78 1
@<TRIPOS>MOLECULE
CHEMBL404078
   88    91     0     0     0
SMALL
USER_CHARGES

@<TRIPOS>ATOM
      1 C1          0.2974   -5.6393   -4.7581 C.3       1 <0>        -0.1538
      2 C2         -0.5658   -5.4920   -3.5035 C.3       1 <0>        -0.1487
      3 C3          0.0246   -4.4050   -2.6030 C.3       1 <0>         0.0953
      4 N1         -0.8802   -4.1587   -1.4774 N.am      1 <0>        -0.6041
      5 C4         -0.8794   -5.0636   -0.3253 C.3       1 <0>         0.1120
      6 C5          0.1316   -4.5689    0.7111 C.3       1 <0>        -0.1382
      7 C6          0.1325   -5.5140    1.9143 C.3       1 <0>        -0.1509
      8 C7         -1.7133   -3.0996   -1.5018 C.2       1 <0>         0.5580
      9 O1         -2.5165   -2.9373   -0.6040 O.2       1 <0>        -0.5235
     10 C8         -1.6504   -2.1351   -2.6208 C.ar      1 <0>        -0.1242
     11 C9         -1.6261   -2.5940   -3.9401 C.ar      1 <0>        -0.0686
     12 C10        -1.5673   -1.6948   -4.9860 C.ar      1 <0>        -0.0903
     13 C11        -1.5321   -0.3370   -4.7362 C.ar      1 <0>        -0.0677
     14 C12        -1.5553    0.1352   -3.4220 C.ar      1 <0>        -0.1452
     15 C13        -1.6209   -0.7667   -2.3620 C.ar      1 <0>        -0.0132
     16 C14        -1.5166    1.5893   -3.1564 C.2       1 <0>         0.5727
     17 O2         -1.4372    1.9965   -2.0139 O.2       1 <0>        -0.5178
     18 N2         -1.5692    2.4631   -4.1811 N.am      1 <0>        -0.7208
     19 C15        -1.3933    3.8960   -3.9317 C.3       1 <0>         0.1039
     20 H1         -1.6888    4.1255   -2.9079 H         1 <0>         0.0998
     21 C16         0.0757    4.2724   -4.1350 C.3       1 <0>        -0.1093
     22 C17         0.9176    3.5966   -3.0836 C.ar      1 <0>        -0.0307
     23 C18         1.0547    4.1714   -1.8342 C.ar      1 <0>        -0.1592
     24 C19         1.8285    3.5516   -0.8675 C.ar      1 <0>         0.1458
     25 C20         2.4644    2.3557   -1.1526 C.ar      1 <0>        -0.1867
     26 C21         2.3260    1.7807   -2.4041 C.ar      1 <0>         0.1456
     27 C22         1.5475    2.3997   -3.3676 C.ar      1 <0>        -0.1563
     28 F1          2.9461    0.6134   -2.6837 F         1 <0>        -0.1241
     29 F2          1.9630    4.1142    0.3534 F         1 <0>        -0.1260
     30 C23        -2.2636    4.6937   -4.9048 C.3       1 <0>         0.0886
     31 H2         -3.2986    4.3621   -4.8222 H         1 <0>         0.1354
     32 C24        -2.1764    6.1827   -4.5640 C.3       1 <0>        -0.0059
     33 H3         -1.1412    6.5139   -4.6467 H         1 <0>         0.1479
     34 C25        -3.0458    6.9802   -5.5385 C.3       1 <0>        -0.1339
     35 C26        -2.9551    8.4695   -5.1937 C.3       1 <0>         0.0807
     36 H4         -1.9288    8.8122   -5.3251 H         1 <0>         0.0783
     37 C27        -3.3803    8.6729   -3.7366 C.3       1 <0>        -0.1762
     38 C28        -2.4985    7.8127   -2.8289 C.3       1 <0>        -0.0029
     39 N3         -2.6503    6.3985   -3.1916 N.4       1 <0>        -0.5066
     40 O3         -3.8209    9.2127   -6.0539 O.3       1 <0>        -0.3641
     41 C29        -3.3724   10.5429   -6.3217 C.3       1 <0>         0.0933
     42 C30        -4.3706   11.2410   -7.2474 C.3       1 <0>        -0.1637
     43 C31        -3.8756   11.6589   -8.6335 C.3       1 <0>        -0.1741
     44 C32        -4.1295   12.7192   -7.5602 C.3       1 <0>        -0.1696
     45 O4         -1.8010    4.4829   -6.2403 O.3       1 <0>        -0.5200
     46 C33        -1.5409   -2.1971   -6.4065 C.3       1 <0>        -0.1201
     47 H5         -0.0719   -6.4713   -5.3576 H         1 <0>         0.0635
     48 H6          0.2487   -4.7205   -5.3426 H         1 <0>         0.0560
     49 H7          1.3305   -5.8310   -4.4679 H         1 <0>         0.0609
     50 H8         -1.5800   -5.2145   -3.7908 H         1 <0>         0.0680
     51 H9         -0.5872   -6.4388   -2.9639 H         1 <0>         0.0736
     52 H10         0.9933   -4.7325   -2.2255 H         1 <0>         0.0829
     53 H11         0.1497   -3.4865   -3.1763 H         1 <0>         0.0878
     54 H12        -1.8742   -5.0863    0.1196 H         1 <0>         0.0882
     55 H13        -0.6042   -6.0667   -0.6513 H         1 <0>         0.0817
     56 H14         1.1264   -4.5462    0.2662 H         1 <0>         0.0628
     57 H15        -0.1435   -3.5659    1.0371 H         1 <0>         0.0643
     58 H16         0.8527   -5.1615    2.6526 H         1 <0>         0.0592
     59 H17        -0.8624   -5.5367    2.3592 H         1 <0>         0.0582
     60 H18         0.4076   -6.5170    1.5883 H         1 <0>         0.0572
     61 H19        -1.6530   -3.6546   -4.1422 H         1 <0>         0.1472
     62 H20        -1.4861    0.3612   -5.5589 H         1 <0>         0.1298
     63 H21        -1.6440   -0.4066   -1.3441 H         1 <0>         0.1422
     64 H22        -1.7237    2.1434   -5.0838 H         1 <0>         0.4133
     65 H23         0.4003    3.9484   -5.1239 H         1 <0>         0.1008
     66 H24         0.1887    5.3533   -4.0516 H         1 <0>         0.0890
     67 H25         0.5585    5.1046   -1.6120 H         1 <0>         0.1322
     68 H26         3.0683    1.8717   -0.3993 H         1 <0>         0.1522
     69 H27         1.4359    1.9490   -4.3427 H         1 <0>         0.1399
     70 H28        -2.6917    6.8201   -6.5569 H         1 <0>         0.1272
     71 H29        -4.0813    6.6500   -5.4564 H         1 <0>         0.1024
     72 H30        -3.2654    9.7227   -3.4670 H         1 <0>         0.1161
     73 H31        -4.4228    8.3778   -3.6171 H         1 <0>         0.1011
     74 H32        -1.4564    8.1088   -2.9490 H         1 <0>         0.1340
     75 H33        -2.7985    7.9553   -1.7907 H         1 <0>         0.1431
     76 H34        -3.6230    6.1381   -3.1280 H         1 <0>         0.4323
     77 H35        -3.2967   11.0961   -5.3855 H         1 <0>         0.0579
     78 H36        -2.3948   10.5068   -6.8024 H         1 <0>         0.0576
     79 H37        -5.4046   10.9069   -7.1615 H         1 <0>         0.1156
     80 H38        -2.8389   11.4363   -8.8859 H         1 <0>         0.0963
     81 H39        -4.5840   11.5996   -9.4599 H         1 <0>         0.1004
     82 H40        -5.0049   13.3575   -7.6803 H         1 <0>         0.1032
     83 H41        -3.2597   13.1943   -7.1064 H         1 <0>         0.0972
     84 H42        -0.8850    4.7560   -6.3870 H         1 <0>         0.3893
     85 H43        -2.5612   -2.2864   -6.7794 H         1 <0>         0.0785
     86 H44        -0.9864   -1.4955   -7.0298 H         1 <0>         0.0725
     87 H45        -1.0559   -3.1728   -6.4379 H         1 <0>         0.0743
     88 H46        -2.1098    5.8300   -2.5570 H         1 <0>         0.4289
@<TRIPOS>BOND
     1    1    2 1
     2    1   47 1
     3    1   48 1
     4    1   49 1
     5    2    3 1
     6    2   50 1
     7    2   51 1
     8    3    4 1
     9    3   52 1
    10    3   53 1
    11    4    5 1
    12    4    8 am
    13    5    6 1
    14    5   54 1
    15    5   55 1
    16    6    7 1
    17    6   56 1
    18    6   57 1
    19    7   58 1
    20    7   59 1
    21    7   60 1
    22    8    9 2
    23    8   10 1
    24   10   15 ar
    25   10   11 ar
    26   11   12 ar
    27   11   61 1
    28   12   13 ar
    29   12   46 1
    30   13   14 ar
    31   13   62 1
    32   14   15 ar
    33   14   16 1
    34   15   63 1
    35   16   17 2
    36   16   18 am
    37   18   19 1
    38   18   64 1
    39   19   20 1
    40   19   21 1
    41   19   30 1
    42   21   22 1
    43   21   65 1
    44   21   66 1
    45   22   27 ar
    46   22   23 ar
    47   23   24 ar
    48   23   67 1
    49   24   25 ar
    50   24   29 1
    51   25   26 ar
    52   25   68 1
    53   26   27 ar
    54   26   28 1
    55   27   69 1
    56   30   31 1
    57   30   32 1
    58   30   45 1
    59   32   33 1
    60   32   39 1
    61   32   34 1
    62   34   35 1
    63   34   70 1
    64   34   71 1
    65   35   36 1
    66   35   37 1
    67   35   40 1
    68   37   38 1
    69   37   72 1
    70   37   73 1
    71   38   39 1
    72   38   74 1
    73   38   75 1
    74   39   76 1
    75   39   88 1
    76   40   41 1
    77   41   42 1
    78   41   77 1
    79   41   78 1
    80   42   44 1
    81   42   43 1
    82   42   79 1
    83   43   44 1
    84   43   80 1
    85   43   81 1
    86   44   82 1
    87   44   83 1
    88   45   84 1
    89   46   85 1
    90   46   86 1
    91   46   87 1
@<TRIPOS>MOLECULE
CHEMBL454795
   81    84     0     0     0
SMALL
USER_CHARGES

@<TRIPOS>ATOM
      1 C1         -2.6526   -2.9501   -9.9237 C.3       1 <0>        -0.1498
      2 C2         -2.2681   -4.0223   -8.9022 C.3       1 <0>        -0.1198
      3 C3         -1.3551   -3.4093   -7.8385 C.3       1 <0>        -0.1354
      4 C4         -0.9706   -4.4815   -6.8170 C.3       1 <0>         0.1221
      5 N1         -0.0964   -3.8945   -5.7985 N.am      1 <0>        -0.6208
      6 C5          1.3674   -3.8450   -5.8923 C.3       1 <0>         0.1068
      7 C6          1.8111   -2.7870   -4.8578 C.3       1 <0>        -0.1239
      8 C7          0.6401   -2.8223   -3.8486 C.3       1 <0>        -0.1141
      9 H1          0.8635   -3.5051   -3.0288 H         1 <0>         0.1215
     10 C8         -0.5323   -3.3270   -4.6606 C.2       1 <0>         0.5169
     11 O1         -1.6960   -3.2352   -4.3315 O.2       1 <0>        -0.5090
     12 C9          0.3535   -1.4186   -3.3116 C.3       1 <0>        -0.1120
     13 C10        -0.6965   -1.5016   -2.2019 C.3       1 <0>        -0.1600
     14 C11         1.9326   -1.4270   -5.4955 C.2       1 <0>         0.5297
     15 O2          2.9540   -0.7858   -5.3665 O.2       1 <0>        -0.5125
     16 N2          0.9063   -0.9232   -6.2092 N.am      1 <0>        -0.7227
     17 C12         1.0244    0.3988   -6.8292 C.3       1 <0>         0.1249
     18 H2          1.6155    1.0504   -6.1856 H         1 <0>         0.1188
     19 C13         1.7125    0.2648   -8.1892 C.3       1 <0>        -0.1013
     20 C14         3.1287   -0.2106   -7.9909 C.ar      1 <0>        -0.0022
     21 C15         4.1475    0.7074   -7.8189 C.ar      1 <0>        -0.1462
     22 C16         5.4493    0.2717   -7.6372 C.ar      1 <0>         0.1395
     23 C17         5.7300   -1.0837   -7.6273 C.ar      1 <0>        -0.1935
     24 C18         4.7088   -2.0021   -7.7992 C.ar      1 <0>         0.1366
     25 C19         3.4070   -1.5643   -7.9757 C.ar      1 <0>        -0.1609
     26 F1          4.9813   -3.3253   -7.7898 F         1 <0>        -0.1338
     27 F2          6.4451    1.1693   -7.4699 F         1 <0>        -0.1326
     28 C20        -0.3699    0.9991   -7.0200 C.3       1 <0>         0.1209
     29 H3         -0.8936    1.0125   -6.0642 H         1 <0>         0.1055
     30 C21        -0.2416    2.4281   -7.5514 C.3       1 <0>         0.0451
     31 H4          0.2822    2.4131   -8.5071 H         1 <0>         0.1195
     32 C22        -1.6120    3.0139   -7.7429 C.2       1 <0>         0.4831
     33 O3         -2.4754    2.3220   -8.2396 O.2       1 <0>        -0.5104
     34 N3         -1.9195    4.2659   -7.3882 N.am      1 <0>        -0.6019
     35 C23        -0.9645    5.1674   -6.7502 C.3       1 <0>         0.0712
     36 C24         0.4621    4.6600   -6.9690 C.3       1 <0>         0.0427
     37 N4          0.5189    3.2389   -6.5911 N.3       1 <0>        -0.6666
     38 C25        -3.2750    4.7551   -7.6519 C.3       1 <0>         0.1512
     39 C26        -4.1556    4.4590   -6.4654 C.ar      1 <0>        -0.1110
     40 C27        -4.8440    3.2621   -6.3971 C.ar      1 <0>        -0.0924
     41 C28        -5.6518    2.9905   -5.3087 C.ar      1 <0>        -0.1223
     42 C29        -5.7708    3.9154   -4.2883 C.ar      1 <0>        -0.1143
     43 C30        -5.0817    5.1119   -4.3562 C.ar      1 <0>        -0.1247
     44 C31        -4.2706    5.3817   -5.4425 C.ar      1 <0>        -0.1085
     45 O4         -1.1054    0.2074   -7.9551 O.3       1 <0>        -0.5256
     46 H5         -3.1768   -2.1387   -9.4188 H         1 <0>         0.0591
     47 H6         -1.7519   -2.5609  -10.3984 H         1 <0>         0.0519
     48 H7         -3.3030   -3.3868  -10.6815 H         1 <0>         0.0523
     49 H8         -3.1688   -4.4115   -8.4275 H         1 <0>         0.0628
     50 H9         -1.7438   -4.8338   -9.4071 H         1 <0>         0.0605
     51 H10        -0.4544   -3.0201   -8.3132 H         1 <0>         0.0620
     52 H11        -1.8793   -2.5979   -7.3336 H         1 <0>         0.0734
     53 H12        -1.8713   -4.8707   -6.3423 H         1 <0>         0.0852
     54 H13        -0.4464   -5.2930   -7.3219 H         1 <0>         0.0801
     55 H14         1.7943   -4.8169   -5.6446 H         1 <0>         0.0882
     56 H15         1.6711   -3.5431   -6.8946 H         1 <0>         0.0826
     57 H16         2.7468   -3.0771   -4.3799 H         1 <0>         0.1320
     58 H17         1.2716   -0.9881   -2.9116 H         1 <0>         0.0747
     59 H18        -0.0207   -0.7899   -4.1195 H         1 <0>         0.0691
     60 H19        -0.3223   -2.1304   -1.3939 H         1 <0>         0.0535
     61 H20        -0.9007   -0.5016   -1.8193 H         1 <0>         0.0545
     62 H21        -1.6146   -1.9321   -2.6018 H         1 <0>         0.0769
     63 H22         0.0894   -1.4361   -6.3124 H         1 <0>         0.4049
     64 H23         1.1698   -0.4555   -8.8015 H         1 <0>         0.0822
     65 H24         1.7209    1.2333   -8.6891 H         1 <0>         0.0932
     66 H25         3.9283    1.7648   -7.8266 H         1 <0>         0.1400
     67 H26         6.7451   -1.4243   -7.4860 H         1 <0>         0.1439
     68 H27         2.6094   -2.2808   -8.1054 H         1 <0>         0.1297
     69 H28        -1.0640    6.1636   -7.1813 H         1 <0>         0.0836
     70 H29        -1.1712    5.2156   -5.6811 H         1 <0>         0.0686
     71 H30         0.7328    4.7715   -8.0189 H         1 <0>         0.0866
     72 H31         1.1525    5.2314   -6.3485 H         1 <0>         0.1053
     73 H32         0.1793    3.0996   -5.6513 H         1 <0>         0.3507
     74 H33        -3.2461    5.8312   -7.8233 H         1 <0>         0.0847
     75 H34        -3.6756    4.2572   -8.5349 H         1 <0>         0.0947
     76 H35        -4.7510    2.5395   -7.1943 H         1 <0>         0.1290
     77 H36        -6.1902    2.0557   -5.2557 H         1 <0>         0.1221
     78 H37        -6.4025    3.7035   -3.4383 H         1 <0>         0.1216
     79 H38        -5.1750    5.8347   -3.5591 H         1 <0>         0.1217
     80 H39        -3.7293    6.3149   -5.4937 H         1 <0>         0.1181
     81 H40        -0.6969    0.1510   -8.8298 H         1 <0>         0.3727
@<TRIPOS>BOND
     1    1    2 1
     2    1   46 1
     3    1   47 1
     4    1   48 1
     5    2    3 1
     6    2   49 1
     7    2   50 1
     8    3    4 1
     9    3   51 1
    10    3   52 1
    11    4    5 1
    12    4   53 1
    13    4   54 1
    14    5   10 am
    15    5    6 1
    16    6    7 1
    17    6   55 1
    18    6   56 1
    19    7    8 1
    20    7   14 1
    21    7   57 1
    22    8    9 1
    23    8   10 1
    24    8   12 1
    25   10   11 2
    26   12   13 1
    27   12   58 1
    28   12   59 1
    29   13   60 1
    30   13   61 1
    31   13   62 1
    32   14   15 2
    33   14   16 am
    34   16   17 1
    35   16   63 1
    36   17   18 1
    37   17   19 1
    38   17   28 1
    39   19   20 1
    40   19   64 1
    41   19   65 1
    42   20   25 ar
    43   20   21 ar
    44   21   22 ar
    45   21   66 1
    46   22   23 ar
    47   22   27 1
    48   23   24 ar
    49   23   67 1
    50   24   25 ar
    51   24   26 1
    52   25   68 1
    53   28   29 1
    54   28   30 1
    55   28   45 1
    56   30   31 1
    57   30   37 1
    58   30   32 1
    59   32   33 2
    60   32   34 am
    61   34   35 1
    62   34   38 1
    63   35   36 1
    64   35   69 1
    65   35   70 1
    66   36   37 1
    67   36   71 1
    68   36   72 1
    69   37   73 1
    70   38   39 1
    71   38   74 1
    72   38   75 1
    73   39   44 ar
    74   39   40 ar
    75   40   41 ar
    76   40   76 1
    77   41   42 ar
    78   41   77 1
    79   42   43 ar
    80   42   78 1
    81   43   44 ar
    82   43   79 1
    83   44   80 1
    84   45   81 1
@<TRIPOS>MOLECULE
CHEMBL454795__1
   82    85     0     0     0
SMALL
USER_CHARGES

@<TRIPOS>ATOM
      1 C1         -2.9950   -2.5522  -10.2239 C.3       1 <0>        -0.1492
      2 C2         -2.7467   -3.7507   -9.3059 C.3       1 <0>        -0.1237
      3 C3         -1.7672   -3.3520   -8.2002 C.3       1 <0>        -0.1319
      4 C4         -1.5188   -4.5505   -7.2822 C.3       1 <0>         0.1187
      5 N1         -0.5809   -4.1686   -6.2235 N.am      1 <0>        -0.6211
      6 C5          0.8780   -4.2904   -6.3262 C.3       1 <0>         0.1053
      7 C6          1.4465   -3.3917   -5.2057 C.3       1 <0>        -0.1233
      8 C7          0.2783   -3.3739   -4.1927 C.3       1 <0>        -0.1165
      9 H1          0.4148   -4.1497   -3.4393 H         1 <0>         0.1273
     10 C8         -0.9458   -3.6564   -5.0355 C.2       1 <0>         0.5141
     11 O1         -2.0900   -3.4528   -4.6887 O.2       1 <0>        -0.5040
     12 C9          0.1652   -1.9995   -3.5299 C.3       1 <0>        -0.1085
     13 C10        -0.8819   -2.0553   -2.4158 C.3       1 <0>        -0.1632
     14 C11         1.7350   -2.0051   -5.7206 C.2       1 <0>         0.5366
     15 O2          2.8275   -1.5083   -5.5453 O.2       1 <0>        -0.5085
     16 N2          0.7791   -1.3172   -6.3759 N.am      1 <0>        -0.7217
     17 C12         1.0597    0.0308   -6.8765 C.3       1 <0>         0.1036
     18 H2          1.7259    0.5444   -6.1834 H         1 <0>         0.0945
     19 C13         1.7271   -0.0639   -8.2500 C.3       1 <0>        -0.1116
     20 C14         3.0847   -0.7019   -8.1059 C.ar      1 <0>        -0.0198
     21 C15         4.1961    0.0852   -7.8705 C.ar      1 <0>        -0.1613
     22 C16         5.4442   -0.4999   -7.7383 C.ar      1 <0>         0.1469
     23 C17         5.5783   -1.8737   -7.8416 C.ar      1 <0>        -0.1846
     24 C18         4.4645   -2.6611   -8.0769 C.ar      1 <0>         0.1494
     25 C19         3.2166   -2.0742   -8.2036 C.ar      1 <0>        -0.1561
     26 F1          4.5940   -4.0021   -8.1779 F         1 <0>        -0.1250
     27 F2          6.5305    0.2698   -7.5091 F         1 <0>        -0.1272
     28 C20        -0.2500    0.8123   -6.9986 C.3       1 <0>         0.0998
     29 H3         -0.7683    0.8049   -6.0398 H         1 <0>         0.1344
     30 C21         0.0535    2.2562   -7.4032 C.3       1 <0>        -0.0216
     31 H4          0.4880    2.2677   -8.4027 H         1 <0>         0.1741
     32 C22        -1.2211    3.0514   -7.4051 C.2       1 <0>         0.5020
     33 O3         -2.2228    2.5437   -7.8632 O.2       1 <0>        -0.4527
     34 N3         -1.2963    4.2965   -6.9215 N.am      1 <0>        -0.6023
     35 C23        -0.1509    4.9799   -6.3256 C.3       1 <0>         0.0789
     36 C24         1.1449    4.2754   -6.7319 C.3       1 <0>        -0.0202
     37 N4          1.0077    2.8381   -6.4510 N.4       1 <0>        -0.5069
     38 C25        -2.5778    5.0028   -6.9928 C.3       1 <0>         0.1545
     39 C26        -3.3729    4.7283   -5.7424 C.ar      1 <0>        -0.1280
     40 C27        -4.2300    3.6449   -5.6921 C.ar      1 <0>        -0.0935
     41 C28        -4.9593    3.3932   -4.5451 C.ar      1 <0>        -0.1191
     42 C29        -4.8312    4.2246   -3.4482 C.ar      1 <0>        -0.1039
     43 C30        -3.9734    5.3075   -3.4981 C.ar      1 <0>        -0.1213
     44 C31        -3.2409    5.5567   -4.6436 C.ar      1 <0>        -0.1075
     45 O4         -1.0773    0.2032   -7.9919 O.3       1 <0>        -0.4959
     46 H5         -3.4165   -1.7313   -9.6438 H         1 <0>         0.0565
     47 H6         -2.0525   -2.2351  -10.6704 H         1 <0>         0.0498
     48 H7         -3.6928   -2.8363  -11.0116 H         1 <0>         0.0564
     49 H8         -3.6891   -4.0678   -8.8594 H         1 <0>         0.0663
     50 H9         -2.3251   -4.5716   -9.8860 H         1 <0>         0.0640
     51 H10        -0.8247   -3.0349   -8.6467 H         1 <0>         0.0587
     52 H11        -2.1887   -2.5311   -7.6201 H         1 <0>         0.0700
     53 H12        -2.4613   -4.8676   -6.8357 H         1 <0>         0.0888
     54 H13        -1.0973   -5.3714   -7.8624 H         1 <0>         0.0838
     55 H14         1.1820   -5.3255   -6.1703 H         1 <0>         0.0937
     56 H15         1.2182   -3.9393   -7.3004 H         1 <0>         0.0825
     57 H16         2.3387   -3.8359   -4.7644 H         1 <0>         0.1380
     58 H17         1.1303   -1.7192   -3.1079 H         1 <0>         0.0741
     59 H18        -0.1344   -1.2611   -4.2736 H         1 <0>         0.0611
     60 H19        -1.8469   -2.3356   -2.8378 H         1 <0>         0.0791
     61 H20        -0.5822   -2.7937   -1.6721 H         1 <0>         0.0585
     62 H21        -0.9624   -1.0762   -1.9436 H         1 <0>         0.0548
     63 H22        -0.0946   -1.7145   -6.5161 H         1 <0>         0.4151
     64 H23         1.1095   -0.6697   -8.9131 H         1 <0>         0.1025
     65 H24         1.8382    0.9359   -8.6696 H         1 <0>         0.0859
     66 H25         4.0912    1.1571   -7.7899 H         1 <0>         0.1306
     67 H26         6.5514   -2.3309   -7.7390 H         1 <0>         0.1514
     68 H27         2.3468   -2.6887   -8.3828 H         1 <0>         0.1344
     69 H28        -0.1253    6.0131   -6.6721 H         1 <0>         0.1306
     70 H29        -0.2456    4.9658   -5.2398 H         1 <0>         0.1008
     71 H30         1.3242    4.4257   -7.7965 H         1 <0>         0.1464
     72 H31         1.9775    4.6825   -6.1581 H         1 <0>         0.1630
     73 H32         0.6686    2.7067   -5.5098 H         1 <0>         0.4365
     74 H33        -2.3978    6.0742   -7.0811 H         1 <0>         0.0999
     75 H34        -3.1362    4.6553   -7.8620 H         1 <0>         0.1058
     76 H35        -4.3300    2.9954   -6.5491 H         1 <0>         0.1287
     77 H36        -5.6294    2.5471   -4.5061 H         1 <0>         0.1265
     78 H37        -5.4015    4.0283   -2.5523 H         1 <0>         0.1268
     79 H38        -3.8735    5.9572   -2.6412 H         1 <0>         0.1264
     80 H39        -2.5679    6.4006   -4.6813 H         1 <0>         0.1206
     81 H40        -0.6786    0.1750   -8.8725 H         1 <0>         0.3856
     82 H41         1.9051    2.3885   -6.5544 H         1 <0>         0.4363
@<TRIPOS>BOND
     1    1    2 1
     2    1   46 1
     3    1   47 1
     4    1   48 1
     5    2    3 1
     6    2   49 1
     7    2   50 1
     8    3    4 1
     9    3   51 1
    10    3   52 1
    11    4    5 1
    12    4   53 1
    13    4   54 1
    14    5   10 am
    15    5    6 1
    16    6    7 1
    17    6   55 1
    18    6   56 1
    19    7    8 1
    20    7   14 1
    21    7   57 1
    22    8    9 1
    23    8   10 1
    24    8   12 1
    25   10   11 2
    26   12   13 1
    27   12   58 1
    28   12   59 1
    29   13   60 1
    30   13   61 1
    31   13   62 1
    32   14   15 2
    33   14   16 am
    34   16   17 1
    35   16   63 1
    36   17   18 1
    37   17   19 1
    38   17   28 1
    39   19   20 1
    40   19   64 1
    41   19   65 1
    42   20   25 ar
    43   20   21 ar
    44   21   22 ar
    45   21   66 1
    46   22   23 ar
    47   22   27 1
    48   23   24 ar
    49   23   67 1
    50   24   25 ar
    51   24   26 1
    52   25   68 1
    53   28   29 1
    54   28   30 1
    55   28   45 1
    56   30   31 1
    57   30   37 1
    58   30   32 1
    59   32   33 2
    60   32   34 am
    61   34   35 1
    62   34   38 1
    63   35   36 1
    64   35   69 1
    65   35   70 1
    66   36   37 1
    67   36   71 1
    68   36   72 1
    69   37   73 1
    70   37   82 1
    71   38   39 1
    72   38   74 1
    73   38   75 1
    74   39   44 ar
    75   39   40 ar
    76   40   41 ar
    77   40   76 1
    78   41   42 ar
    79   41   77 1
    80   42   43 ar
    81   42   78 1
    82   43   44 ar
    83   43   79 1
    84   44   80 1
    85   45   81 1
@<TRIPOS>MOLECULE
CHEMBL454795__2
   81    84     0     0     0
SMALL
USER_CHARGES

@<TRIPOS>ATOM
      1 C1         -0.0187    1.5258    0.0104 C.3       1 <0>        -0.1524
      2 C2          0.0021   -0.0041    0.0020 C.3       1 <0>        -0.1223
      3 C3          0.7182   -0.4975   -1.2568 C.3       1 <0>        -0.1360
      4 C4          0.7390   -2.0273   -1.2652 C.3       1 <0>         0.1252
      5 N1          1.4247   -2.4998   -2.4705 N.am      1 <0>        -0.6181
      6 C5          0.7582   -2.7724   -3.7493 C.3       1 <0>         0.1123
      7 C6          1.8876   -2.8119   -4.8026 C.3       1 <0>        -0.1246
      8 C7          3.1094   -3.2044   -3.9400 C.3       1 <0>        -0.1025
      9 H1          3.2562   -4.2843   -3.9554 H         1 <0>         0.1234
     10 C8          2.7460   -2.7338   -2.5489 C.2       1 <0>         0.5243
     11 O1          3.5321   -2.5911   -1.6364 O.2       1 <0>        -0.5152
     12 C9          4.3670   -2.4872   -4.4352 C.3       1 <0>        -0.0990
     13 C10         5.5811   -2.9850   -3.6484 C.3       1 <0>        -0.1613
     14 C11         1.6101   -3.8573   -5.8519 C.2       1 <0>         0.5268
     15 O2          2.3766   -4.7854   -6.0009 O.2       1 <0>        -0.5072
     16 N2          0.5102   -3.7610   -6.6248 N.am      1 <0>        -0.7227
     17 C12         0.2405   -4.7773   -7.6449 C.3       1 <0>         0.1265
     18 H2          1.1820   -5.1211   -8.0732 H         1 <0>         0.1190
     19 C13        -0.4911   -5.9595   -7.0061 C.3       1 <0>        -0.1016
     20 C14         0.4150   -6.6296   -6.0056 C.ar      1 <0>        -0.0032
     21 C15         1.2500   -7.6547   -6.4082 C.ar      1 <0>        -0.1465
     22 C16         2.0826   -8.2715   -5.4896 C.ar      1 <0>         0.1403
     23 C17         2.0788   -7.8607   -4.1678 C.ar      1 <0>        -0.1941
     24 C18         1.2425   -6.8336   -3.7658 C.ar      1 <0>         0.1359
     25 C19         0.4145   -6.2148   -4.6872 C.ar      1 <0>        -0.1621
     26 F1          1.2378   -6.4315   -2.4760 F         1 <0>        -0.1328
     27 F2          2.8980   -9.2741   -5.8833 F         1 <0>        -0.1323
     28 C20        -0.6313   -4.1738   -8.7480 C.3       1 <0>         0.1213
     29 H3         -0.1502   -3.2789   -9.1426 H         1 <0>         0.1075
     30 C21        -0.8098   -5.1952   -9.8731 C.3       1 <0>         0.0441
     31 H4         -1.2909   -6.0895   -9.4770 H         1 <0>         0.1201
     32 C22        -1.6703   -4.6025  -10.9529 C.2       1 <0>         0.4830
     33 O3         -2.6524   -3.9681  -10.6305 O.2       1 <0>        -0.5124
     34 N3         -1.3985   -4.7450  -12.2543 N.am      1 <0>        -0.6018
     35 C23        -0.2230   -5.4579  -12.7462 C.3       1 <0>         0.0711
     36 C24         0.3459   -6.3539  -11.6445 C.3       1 <0>         0.0424
     37 N4          0.5057   -5.5515  -10.4214 N.3       1 <0>        -0.6665
     38 C25        -2.3215   -4.1602  -13.2302 C.3       1 <0>         0.1505
     39 C26        -1.8948   -2.7489  -13.5421 C.ar      1 <0>        -0.1108
     40 C27        -2.3819   -1.6971  -12.7888 C.ar      1 <0>        -0.0931
     41 C28        -1.9905   -0.4026  -13.0750 C.ar      1 <0>        -0.1232
     42 C29        -1.1117   -0.1598  -14.1140 C.ar      1 <0>        -0.1147
     43 C30        -0.6239   -1.2117  -14.8667 C.ar      1 <0>        -0.1245
     44 C31        -1.0120   -2.5067  -14.5779 C.ar      1 <0>        -0.1081
     45 O4         -1.9097   -3.8296   -8.2100 O.3       1 <0>        -0.5299
     46 H5          1.0039    1.9031    0.0027 H         1 <0>         0.0542
     47 H6         -0.5459    1.8868   -0.8726 H         1 <0>         0.0534
     48 H7         -0.5289    1.8773    0.9072 H         1 <0>         0.0557
     49 H8          0.5293   -0.3651    0.8851 H         1 <0>         0.0644
     50 H9         -1.0205   -0.3814    0.0098 H         1 <0>         0.0632
     51 H10         0.1910   -0.1364   -2.1398 H         1 <0>         0.0638
     52 H11         1.7408   -0.1202   -1.2645 H         1 <0>         0.0669
     53 H12         1.2661   -2.3884   -0.3821 H         1 <0>         0.0845
     54 H13        -0.2836   -2.4046   -1.2575 H         1 <0>         0.0790
     55 H14         0.2452   -3.7333   -3.7101 H         1 <0>         0.0739
     56 H15         0.0516   -1.9762   -3.9837 H         1 <0>         0.0874
     57 H16         2.0304   -1.8321   -5.2584 H         1 <0>         0.1192
     58 H17         4.5106   -2.6959   -5.4953 H         1 <0>         0.0720
     59 H18         4.2544   -1.4131   -4.2883 H         1 <0>         0.0618
     60 H19         5.6938   -4.0592   -3.7953 H         1 <0>         0.0531
     61 H20         6.4771   -2.4742   -4.0012 H         1 <0>         0.0536
     62 H21         5.4376   -2.7764   -2.5883 H         1 <0>         0.0766
     63 H22        -0.1028   -3.0187   -6.5057 H         1 <0>         0.4055
     64 H23        -1.3883   -5.6017   -6.5012 H         1 <0>         0.0839
     65 H24        -0.7703   -6.6749   -7.7796 H         1 <0>         0.0931
     66 H25         1.2528   -7.9751   -7.4396 H         1 <0>         0.1401
     67 H26         2.7276   -8.3414   -3.4507 H         1 <0>         0.1436
     68 H27        -0.2350   -5.4104   -4.3747 H         1 <0>         0.1310
     69 H28        -0.5041   -6.0714  -13.6022 H         1 <0>         0.0839
     70 H29         0.5347   -4.7370  -13.0534 H         1 <0>         0.0689
     71 H30        -0.3398   -7.1797  -11.4545 H         1 <0>         0.0869
     72 H31         1.3149   -6.7446  -11.9550 H         1 <0>         0.1055
     73 H32         1.0591   -4.7266  -10.5985 H         1 <0>         0.3507
     74 H33        -2.3083   -4.7541  -14.1441 H         1 <0>         0.0852
     75 H34        -3.3300   -4.1519  -12.8168 H         1 <0>         0.0950
     76 H35        -3.0685   -1.8867  -11.9770 H         1 <0>         0.1293
     77 H36        -2.3716    0.4192  -12.4869 H         1 <0>         0.1221
     78 H37        -0.8065    0.8516  -14.3380 H         1 <0>         0.1217
     79 H38         0.0624   -1.0221  -15.6787 H         1 <0>         0.1219
     80 H39        -0.6280   -3.3288  -15.1635 H         1 <0>         0.1185
     81 H40        -2.3957   -4.5794   -7.8403 H         1 <0>         0.3754
@<TRIPOS>BOND
     1    1    2 1
     2    1   46 1
     3    1   47 1
     4    1   48 1
     5    2    3 1
     6    2   49 1
     7    2   50 1
     8    3    4 1
     9    3   51 1
    10    3   52 1
    11    4    5 1
    12    4   53 1
    13    4   54 1
    14    5   10 am
    15    5    6 1
    16    6    7 1
    17    6   55 1
    18    6   56 1
    19    7    8 1
    20    7   14 1
    21    7   57 1
    22    8    9 1
    23    8   10 1
    24    8   12 1
    25   10   11 2
    26   12   13 1
    27   12   58 1
    28   12   59 1
    29   13   60 1
    30   13   61 1
    31   13   62 1
    32   14   15 2
    33   14   16 am
    34   16   17 1
    35   16   63 1
    36   17   18 1
    37   17   19 1
    38   17   28 1
    39   19   20 1
    40   19   64 1
    41   19   65 1
    42   20   25 ar
    43   20   21 ar
    44   21   22 ar
    45   21   66 1
    46   22   23 ar
    47   22   27 1
    48   23   24 ar
    49   23   67 1
    50   24   25 ar
    51   24   26 1
    52   25   68 1
    53   28   29 1
    54   28   30 1
    55   28   45 1
    56   30   31 1
    57   30   37 1
    58   30   32 1
    59   32   33 2
    60   32   34 am
    61   34   35 1
    62   34   38 1
    63   35   36 1
    64   35   69 1
    65   35   70 1
    66   36   37 1
    67   36   71 1
    68   36   72 1
    69   37   73 1
    70   38   39 1
    71   38   74 1
    72   38   75 1
    73   39   44 ar
    74   39   40 ar
    75   40   41 ar
    76   40   76 1
    77   41   42 ar
    78   41   77 1
    79   42   43 ar
    80   42   78 1
    81   43   44 ar
    82   43   79 1
    83   44   80 1
    84   45   81 1
@<TRIPOS>MOLECULE
CHEMBL454795__3
   82    85     0     0     0
SMALL
USER_CHARGES

@<TRIPOS>ATOM
      1 C1          1.0305    1.4632    0.0191 C.3       1 <0>        -0.1532
      2 C2          0.9713   -0.0656    0.0014 C.3       1 <0>        -0.1230
      3 C3          1.5419   -0.5828   -1.3206 C.3       1 <0>        -0.1354
      4 C4          1.4827   -2.1115   -1.3383 C.3       1 <0>         0.1243
      5 N1          2.0291   -2.6068   -2.6042 N.am      1 <0>        -0.6185
      6 C5          1.2343   -2.8327   -3.8172 C.3       1 <0>         0.1132
      7 C6          2.2583   -2.9197   -4.9706 C.3       1 <0>        -0.1254
      8 C7          3.5326   -3.3822   -4.2267 C.3       1 <0>        -0.1024
      9 H1          3.6213   -4.4681   -4.2608 H         1 <0>         0.1220
     10 C8          3.3237   -2.9072   -2.8057 C.2       1 <0>         0.5218
     11 O1          4.1969   -2.8134   -1.9692 O.2       1 <0>        -0.5059
     12 C9          4.7745   -2.7255   -4.8327 C.3       1 <0>        -0.0990
     13 C10         6.0286   -3.2921   -4.1641 C.3       1 <0>        -0.1633
     14 C11         1.8317   -3.9395   -5.9948 C.2       1 <0>         0.5331
     15 O2          2.5321   -4.9039   -6.2186 O.2       1 <0>        -0.5035
     16 N2          0.6716   -3.7797   -6.6621 N.am      1 <0>        -0.7207
     17 C12         0.2569   -4.7711   -7.6578 C.3       1 <0>         0.1053
     18 H2          1.1359   -5.1583   -8.1731 H         1 <0>         0.0950
     19 C13        -0.4728   -5.9205   -6.9598 C.3       1 <0>        -0.1121
     20 C14         0.4909   -6.6585   -6.0666 C.ar      1 <0>        -0.0213
     21 C15         1.2184   -7.7224   -6.5654 C.ar      1 <0>        -0.1615
     22 C16         2.1038   -8.4015   -5.7455 C.ar      1 <0>         0.1478
     23 C17         2.2605   -8.0141   -4.4259 C.ar      1 <0>        -0.1850
     24 C18         1.5317   -6.9480   -3.9275 C.ar      1 <0>         0.1488
     25 C19         0.6507   -6.2672   -4.7507 C.ar      1 <0>        -0.1574
     26 F1          1.6836   -6.5688   -2.6397 F         1 <0>        -0.1240
     27 F2          2.8142   -9.4421   -6.2331 F         1 <0>        -0.1270
     28 C20        -0.6805   -4.1134   -8.6725 C.3       1 <0>         0.1024
     29 H3         -0.1803   -3.2592   -9.1289 H         1 <0>         0.1359
     30 C21        -1.0502   -5.1272   -9.7572 C.3       1 <0>        -0.0224
     31 H4         -1.6371   -5.9321   -9.3145 H         1 <0>         0.1743
     32 C22        -1.8630   -4.4449  -10.8205 C.2       1 <0>         0.5022
     33 O3         -2.7190   -3.6553  -10.4815 O.2       1 <0>        -0.4550
     34 N3         -1.6806   -4.6725  -12.1262 N.am      1 <0>        -0.6023
     35 C23        -0.6570   -5.5844  -12.6308 C.3       1 <0>         0.0789
     36 C24        -0.1817   -6.5069  -11.5067 C.3       1 <0>        -0.0203
     37 N4          0.1764   -5.6838  -10.3415 N.4       1 <0>        -0.5066
     38 C25        -2.5419   -3.9801  -13.0880 C.3       1 <0>         0.1539
     39 C26        -1.9093   -2.6684  -13.4755 C.ar      1 <0>        -0.1277
     40 C27        -2.1861   -1.5260  -12.7480 C.ar      1 <0>        -0.0942
     41 C28        -1.6058   -0.3227  -13.1034 C.ar      1 <0>        -0.1201
     42 C29        -0.7483   -0.2620  -14.1860 C.ar      1 <0>        -0.1043
     43 C30        -0.4708   -1.4046  -14.9129 C.ar      1 <0>        -0.1211
     44 C31        -1.0478   -2.6087  -14.5549 C.ar      1 <0>        -0.1071
     45 O4         -1.8667   -3.6720   -8.0089 O.3       1 <0>        -0.5001
     46 H5          2.0662    1.7878   -0.0814 H         1 <0>         0.0549
     47 H6          0.4436    1.8591   -0.8096 H         1 <0>         0.0531
     48 H7          0.6240    1.8316    0.9610 H         1 <0>         0.0578
     49 H8          1.5583   -0.4616    0.8301 H         1 <0>         0.0658
     50 H9         -0.0643   -0.3903    0.1019 H         1 <0>         0.0635
     51 H10         0.9550   -0.1868   -2.1494 H         1 <0>         0.0629
     52 H11         2.5776   -0.2581   -1.4211 H         1 <0>         0.0676
     53 H12         2.0697   -2.5075   -0.5096 H         1 <0>         0.0870
     54 H13         0.4471   -2.4362   -1.2378 H         1 <0>         0.0800
     55 H14         0.6783   -3.7666   -3.7353 H         1 <0>         0.0713
     56 H15         0.5513   -1.9993   -3.9813 H         1 <0>         0.0895
     57 H16         2.4090   -1.9442   -5.4329 H         1 <0>         0.1246
     58 H17         4.8088   -2.9310   -5.9026 H         1 <0>         0.0693
     59 H18         4.7316   -1.6484   -4.6708 H         1 <0>         0.0647
     60 H19         5.9944   -3.0866   -3.0942 H         1 <0>         0.0788
     61 H20         6.0716   -4.3692   -4.3260 H         1 <0>         0.0527
     62 H21         6.9134   -2.8242   -4.5958 H         1 <0>         0.0566
     63 H22         0.1114   -3.0084   -6.4832 H         1 <0>         0.4160
     64 H23        -1.2907   -5.5209   -6.3603 H         1 <0>         0.1038
     65 H24        -0.8717   -6.6054   -7.7081 H         1 <0>         0.0847
     66 H25         1.0960   -8.0245   -7.5951 H         1 <0>         0.1305
     67 H26         2.9506   -8.5433   -3.7855 H         1 <0>         0.1511
     68 H27         0.0852   -5.4326   -4.3633 H         1 <0>         0.1358
     69 H28        -1.0737   -6.1844  -13.4398 H         1 <0>         0.1307
     70 H29         0.1877   -5.0077  -13.0075 H         1 <0>         0.1011
     71 H30        -0.9818   -7.1963  -11.2370 H         1 <0>         0.1464
     72 H31         0.6908   -7.0689  -11.8397 H         1 <0>         0.1631
     73 H32         0.7843   -4.9321  -10.6304 H         1 <0>         0.4366
     74 H33        -2.6664   -4.5998  -13.9760 H         1 <0>         0.1002
     75 H34        -3.5159   -3.7941  -12.6353 H         1 <0>         0.1061
     76 H35        -2.8560   -1.5735  -11.9022 H         1 <0>         0.1290
     77 H36        -1.8225    0.5699  -12.5355 H         1 <0>         0.1264
     78 H37        -0.2955    0.6782  -14.4641 H         1 <0>         0.1269
     79 H38         0.1988   -1.3571  -15.7589 H         1 <0>         0.1266
     80 H39        -0.8281   -3.5021  -15.1205 H         1 <0>         0.1210
     81 H40        -2.3639   -4.3813   -7.5790 H         1 <0>         0.3880
     82 H41         0.6468   -6.2570   -9.6572 H         1 <0>         0.4366
@<TRIPOS>BOND
     1    1    2 1
     2    1   46 1
     3    1   47 1
     4    1   48 1
     5    2    3 1
     6    2   49 1
     7    2   50 1
     8    3    4 1
     9    3   51 1
    10    3   52 1
    11    4    5 1
    12    4   53 1
    13    4   54 1
    14    5   10 am
    15    5    6 1
    16    6    7 1
    17    6   55 1
    18    6   56 1
    19    7    8 1
    20    7   14 1
    21    7   57 1
    22    8    9 1
    23    8   10 1
    24    8   12 1
    25   10   11 2
    26   12   13 1
    27   12   58 1
    28   12   59 1
    29   13   60 1
    30   13   61 1
    31   13   62 1
    32   14   15 2
    33   14   16 am
    34   16   17 1
    35   16   63 1
    36   17   18 1
    37   17   19 1
    38   17   28 1
    39   19   20 1
    40   19   64 1
    41   19   65 1
    42   20   25 ar
    43   20   21 ar
    44   21   22 ar
    45   21   66 1
    46   22   23 ar
    47   22   27 1
    48   23   24 ar
    49   23   67 1
    50   24   25 ar
    51   24   26 1
    52   25   68 1
    53   28   29 1
    54   28   30 1
    55   28   45 1
    56   30   31 1
    57   30   37 1
    58   30   32 1
    59   32   33 2
    60   32   34 am
    61   34   35 1
    62   34   38 1
    63   35   36 1
    64   35   69 1
    65   35   70 1
    66   36   37 1
    67   36   71 1
    68   36   72 1
    69   37   73 1
    70   37   82 1
    71   38   39 1
    72   38   74 1
    73   38   75 1
    74   39   44 ar
    75   39   40 ar
    76   40   41 ar
    77   40   76 1
    78   41   42 ar
    79   41   77 1
    80   42   43 ar
    81   42   78 1
    82   43   44 ar
    83   43   79 1
    84   44   80 1
    85   45   81 1
@<TRIPOS>MOLECULE
CHEMBL428870
   79    82     0     0     0
SMALL
USER_CHARGES

@<TRIPOS>ATOM
      1 C1         -0.0187    1.5258    0.0104 C.3       1 <0>        -0.1548
      2 C2          0.0021   -0.0041    0.0020 C.3       1 <0>        -0.1236
      3 C3         -1.4333   -0.5336    0.0129 C.3       1 <0>        -0.1183
      4 C4         -1.4126   -2.0635    0.0045 C.3       1 <0>        -0.1356
      5 C5         -2.8479   -2.5931    0.0153 C.3       1 <0>         0.1254
      6 N1         -2.8281   -4.0579    0.0073 N.am      1 <0>        -0.6166
      7 C6         -2.8226   -4.8793   -1.2089 C.3       1 <0>         0.1182
      8 C7         -3.2370   -6.2955   -0.7517 C.3       1 <0>        -0.1263
      9 H1         -4.3141   -6.4355   -0.8434 H         1 <0>         0.1230
     10 C8         -2.8045   -6.2866    0.7329 C.3       1 <0>        -0.1478
     11 C9         -2.8067   -4.8222    1.1128 C.2       1 <0>         0.5184
     12 O1         -2.7938   -4.3994    2.2495 O.2       1 <0>        -0.5154
     13 C10        -2.4908   -7.3519   -1.5252 C.2       1 <0>         0.5322
     14 O2         -1.6896   -7.0280   -2.3761 O.2       1 <0>        -0.5084
     15 N2         -2.7140   -8.6566   -1.2715 N.am      1 <0>        -0.7221
     16 C11        -1.9886   -9.6836   -2.0235 C.3       1 <0>         0.1061
     17 H2         -1.8352   -9.3435   -3.0477 H         1 <0>         0.0967
     18 C12        -0.6326   -9.9378   -1.3620 C.3       1 <0>        -0.1094
     19 C13         0.2158   -8.6963   -1.4623 C.ar      1 <0>        -0.0189
     20 C14         1.0385   -8.5088   -2.5569 C.ar      1 <0>        -0.1587
     21 C15         1.8189   -7.3687   -2.6499 C.ar      1 <0>         0.1465
     22 C16         1.7744   -6.4164   -1.6463 C.ar      1 <0>        -0.1861
     23 C17         0.9497   -6.6051   -0.5507 C.ar      1 <0>         0.1478
     24 C18         0.1663   -7.7435   -0.4624 C.ar      1 <0>        -0.1614
     25 F1          0.9053   -5.6764    0.4295 F         1 <0>        -0.1242
     26 F2          2.6237   -7.1861   -3.7195 F         1 <0>        -0.1277
     27 C19        -2.8024  -10.9791   -2.0328 C.3       1 <0>         0.0933
     28 H3         -3.8004  -10.7786   -2.4225 H         1 <0>         0.1344
     29 C20        -2.1062  -12.0124   -2.9208 C.3       1 <0>        -0.0120
     30 H4         -1.1012  -12.2144   -2.5504 H         1 <0>         0.1539
     31 C21        -2.9337  -13.3208   -2.9763 C.3       1 <0>        -0.1270
     32 C22        -2.4611  -13.9336   -4.3209 C.3       1 <0>         0.0722
     33 H5         -1.5239  -14.4744   -4.1897 H         1 <0>         0.1051
     34 C23        -2.2545  -12.6928   -5.2149 C.3       1 <0>        -0.0380
     35 N3         -2.0532  -11.5367   -4.3196 N.4       1 <0>        -0.5063
     36 O3         -3.4655  -14.7917   -4.8658 O.3       1 <0>        -0.3512
     37 C24        -2.9474  -15.8677   -5.6506 C.3       1 <0>         0.1019
     38 C25        -4.0878  -16.7035   -6.1721 C.ar      1 <0>        -0.1096
     39 C26        -4.5586  -17.7704   -5.4298 C.ar      1 <0>        -0.0951
     40 C27        -5.6046  -18.5372   -5.9082 C.ar      1 <0>        -0.1199
     41 C28        -6.1802  -18.2367   -7.1285 C.ar      1 <0>        -0.1023
     42 C29        -5.7100  -17.1692   -7.8704 C.ar      1 <0>        -0.1213
     43 C30        -4.6668  -16.3999   -7.3901 C.ar      1 <0>        -0.0980
     44 O4         -2.9044  -11.4871   -0.7010 O.3       1 <0>        -0.5195
     45 H6          1.0039    1.9031    0.0027 H         1 <0>         0.0551
     46 H7         -0.5459    1.8868   -0.8726 H         1 <0>         0.0541
     47 H8         -0.5289    1.8773    0.9072 H         1 <0>         0.0552
     48 H9          0.5123   -0.3556   -0.8948 H         1 <0>         0.0596
     49 H10         0.5293   -0.3651    0.8851 H         1 <0>         0.0613
     50 H11        -1.9435   -0.1821    0.9097 H         1 <0>         0.0659
     51 H12        -1.9605   -0.1726   -0.8702 H         1 <0>         0.0640
     52 H13        -0.9024   -2.4150   -0.8923 H         1 <0>         0.0630
     53 H14        -0.8854   -2.4246    0.8875 H         1 <0>         0.0672
     54 H15        -3.3581   -2.2415    0.9121 H         1 <0>         0.0866
     55 H16        -3.3751   -2.2320   -0.8677 H         1 <0>         0.0814
     56 H17        -3.5415   -4.4904   -1.9300 H         1 <0>         0.0865
     57 H18        -1.8239   -4.9009   -1.6451 H         1 <0>         0.0892
     58 H19        -3.5178   -6.8425    1.3414 H         1 <0>         0.1137
     59 H20        -1.8031   -6.7033    0.8410 H         1 <0>         0.1039
     60 H21        -3.3548   -8.9157   -0.5910 H         1 <0>         0.4152
     61 H22        -0.7822  -10.1918   -0.3127 H         1 <0>         0.0992
     62 H23        -0.1307  -10.7627   -1.8676 H         1 <0>         0.0879
     63 H24         1.0731   -9.2519   -3.3398 H         1 <0>         0.1318
     64 H25         2.3830   -5.5271   -1.7178 H         1 <0>         0.1499
     65 H26        -0.4805   -7.8888    0.3902 H         1 <0>         0.1356
     66 H27        -2.6860  -13.9752   -2.1405 H         1 <0>         0.1281
     67 H28        -4.0021  -13.1064   -2.9990 H         1 <0>         0.1149
     68 H29        -1.3746  -12.8308   -5.8433 H         1 <0>         0.1412
     69 H30        -3.1355  -12.5329   -5.8366 H         1 <0>         0.1462
     70 H31        -2.7822  -10.8565   -4.4748 H         1 <0>         0.4322
     71 H32        -2.3791  -15.4650   -6.4890 H         1 <0>         0.0657
     72 H33        -2.2958  -16.4865   -5.0337 H         1 <0>         0.0707
     73 H34        -4.1089  -18.0052   -4.4764 H         1 <0>         0.1239
     74 H35        -5.9719  -19.3712   -5.3286 H         1 <0>         0.1288
     75 H36        -6.9970  -18.8362   -7.5026 H         1 <0>         0.1285
     76 H37        -6.1595  -16.9346   -8.8240 H         1 <0>         0.1279
     77 H38        -4.3019  -15.5636   -7.9679 H         1 <0>         0.1212
     78 H39        -2.0523  -11.6883   -0.2905 H         1 <0>         0.3909
     79 H40        -1.1541  -11.1165   -4.5015 H         1 <0>         0.4341
@<TRIPOS>BOND
     1    1    2 1
     2    1   45 1
     3    1   46 1
     4    1   47 1
     5    2    3 1
     6    2   48 1
     7    2   49 1
     8    3    4 1
     9    3   50 1
    10    3   51 1
    11    4    5 1
    12    4   52 1
    13    4   53 1
    14    5    6 1
    15    5   54 1
    16    5   55 1
    17    6   11 am
    18    6    7 1
    19    7    8 1
    20    7   56 1
    21    7   57 1
    22    8    9 1
    23    8   10 1
    24    8   13 1
    25   10   11 1
    26   10   58 1
    27   10   59 1
    28   11   12 2
    29   13   14 2
    30   13   15 am
    31   15   16 1
    32   15   60 1
    33   16   17 1
    34   16   18 1
    35   16   27 1
    36   18   19 1
    37   18   61 1
    38   18   62 1
    39   19   24 ar
    40   19   20 ar
    41   20   21 ar
    42   20   63 1
    43   21   22 ar
    44   21   26 1
    45   22   23 ar
    46   22   64 1
    47   23   24 ar
    48   23   25 1
    49   24   65 1
    50   27   28 1
    51   27   29 1
    52   27   44 1
    53   29   30 1
    54   29   35 1
    55   29   31 1
    56   31   32 1
    57   31   66 1
    58   31   67 1
    59   32   33 1
    60   32   34 1
    61   32   36 1
    62   34   35 1
    63   34   68 1
    64   34   69 1
    65   35   70 1
    66   35   79 1
    67   36   37 1
    68   37   38 1
    69   37   71 1
    70   37   72 1
    71   38   43 ar
    72   38   39 ar
    73   39   40 ar
    74   39   73 1
    75   40   41 ar
    76   40   74 1
    77   41   42 ar
    78   41   75 1
    79   42   43 ar
    80   42   76 1
    81   43   77 1
    82   44   78 1
@<TRIPOS>MOLECULE
CHEMBL270154
   62    65     0     0     0
SMALL
USER_CHARGES

@<TRIPOS>ATOM
      1 C1          2.0540   -2.7843    2.0061 C.3       1 <0>        -0.1507
      2 C2          0.9601   -2.0244    1.2532 C.3       1 <0>        -0.1237
      3 C3         -0.3254   -2.8541    1.2471 C.3       1 <0>         0.0574
      4 O1         -1.3471   -2.1444    0.5439 O.3       1 <0>        -0.3147
      5 C4         -2.5611   -2.7470    0.4458 C.ar      1 <0>         0.1311
      6 C5         -2.7633   -3.9945    1.0212 C.ar      1 <0>        -0.1998
      7 C6         -3.9931   -4.6095    0.9236 C.ar      1 <0>        -0.0837
      8 C7         -5.0365   -3.9761    0.2454 C.ar      1 <0>        -0.0544
      9 C8         -4.8290   -2.7214   -0.3314 C.ar      1 <0>        -0.0592
     10 C9         -3.5975   -2.1111   -0.2247 C.ar      1 <0>        -0.1457
     11 C10        -6.3563   -4.6318    0.1379 C.2       1 <0>         0.0816
     12 C11        -7.5474   -4.0029   -0.0814 C.2       1 <0>        -0.1772
     13 C12        -8.5450   -4.9836   -0.1140 C.2       1 <0>        -0.1501
     14 C13        -7.9433   -6.1920    0.0859 C.2       1 <0>         0.0496
     15 N1         -6.5960   -5.9786    0.2353 N.pl3     1 <0>        -0.4153
     16 C14        -5.5851   -7.0141    0.4635 C.3       1 <0>         0.0733
     17 C15        -5.4840   -7.3007    1.9396 C.2       1 <0>         0.4914
     18 O2         -6.1886   -6.6979    2.7254 O.2       1 <0>        -0.5077
     19 N2         -4.6227   -8.2142    2.3829 N.2       1 <0>        -0.7014
     20 C16        -5.0422   -9.1917    3.1763 C.2       1 <0>         0.7057
     21 N3         -4.1440  -10.0572    3.7241 N.pl3     1 <0>        -0.8217
     22 N4         -6.3710   -9.3297    3.4430 N.pl3     1 <0>        -0.7338
     23 C17        -6.8248  -10.3426    4.3992 C.3       1 <0>         0.1961
     24 C18        -8.3266  -10.2889    4.5129 C.2       1 <0>        -0.1892
     25 C19        -9.2613  -10.9630    3.7993 C.2       1 <0>        -0.1174
     26 C20       -10.5985  -10.7541    4.0802 C.2       1 <0>        -0.1649
     27 C21       -10.9356   -9.8814    5.0611 C.2       1 <0>        -0.1563
     28 S1         -9.3360   -9.3270    5.6278 S.3       1 <0>         0.0702
     29 C22        -8.6236   -7.5028    0.1288 C.ar      1 <0>        -0.0056
     30 C23        -8.1493   -8.5647   -0.6438 C.ar      1 <0>        -0.1106
     31 C24        -8.7888   -9.7860   -0.5988 C.ar      1 <0>        -0.1120
     32 C25        -9.8986   -9.9608    0.2093 C.ar      1 <0>        -0.1062
     33 C26       -10.3747   -8.9137    0.9776 C.ar      1 <0>        -0.1029
     34 C27        -9.7410   -7.6872    0.9469 C.ar      1 <0>        -0.0166
     35 Cl1       -10.3352   -6.3759    1.9171 Cl        1 <0>        -0.0490
     36 H1          2.9698   -2.1932    2.0105 H         1 <0>         0.0655
     37 H2          1.7319   -2.9630    3.0320 H         1 <0>         0.0577
     38 H3          2.2395   -3.7381    1.5122 H         1 <0>         0.0578
     39 H4          0.7746   -1.0706    1.7471 H         1 <0>         0.0739
     40 H5          1.2821   -1.8458    0.2273 H         1 <0>         0.0740
     41 H6         -0.1399   -3.8079    0.7532 H         1 <0>         0.0625
     42 H7         -0.6474   -3.0328    2.2730 H         1 <0>         0.0621
     43 H8         -1.9558   -4.4837    1.5456 H         1 <0>         0.1288
     44 H9         -4.1494   -5.5801    1.3709 H         1 <0>         0.1245
     45 H10        -5.6332   -2.2283   -0.8572 H         1 <0>         0.1366
     46 H11        -3.4374   -1.1389   -0.6670 H         1 <0>         0.1353
     47 H12        -7.6937   -2.9402   -0.2067 H         1 <0>         0.1411
     48 H13        -9.6003   -4.8148   -0.2694 H         1 <0>         0.1386
     49 H14        -5.8712   -7.9238   -0.0644 H         1 <0>         0.1143
     50 H15        -4.6201   -6.6676    0.0937 H         1 <0>         0.1243
     51 H16        -3.1979   -9.9589    3.5342 H         1 <0>         0.4266
     52 H17        -4.4506  -10.7717    4.3041 H         1 <0>         0.4111
     53 H18        -7.0166   -8.7573    2.9998 H         1 <0>         0.4225
     54 H19        -6.5217  -11.3307    4.0531 H         1 <0>         0.0913
     55 H20        -6.3794  -10.1468    5.3746 H         1 <0>         0.0853
     56 H21        -8.9656  -11.6526    3.0225 H         1 <0>         0.1327
     57 H22       -11.3632  -11.2782    3.5262 H         1 <0>         0.1364
     58 H23       -11.9170   -9.5981    5.4116 H         1 <0>         0.1880
     59 H24        -7.2837   -8.4301   -1.2755 H         1 <0>         0.1279
     60 H25        -8.4226  -10.6080   -1.1960 H         1 <0>         0.1300
     61 H26       -10.3956  -10.9191    0.2398 H         1 <0>         0.1311
     62 H27       -11.2416   -9.0568    1.6057 H         1 <0>         0.1335
@<TRIPOS>BOND
     1    1    2 1
     2    1   36 1
     3    1   37 1
     4    1   38 1
     5    2    3 1
     6    2   39 1
     7    2   40 1
     8    3    4 1
     9    3   41 1
    10    3   42 1
    11    4    5 1
    12    5   10 ar
    13    5    6 ar
    14    6    7 ar
    15    6   43 1
    16    7    8 ar
    17    7   44 1
    18    8    9 ar
    19    8   11 1
    20    9   10 ar
    21    9   45 1
    22   10   46 1
    23   11   15 1
    24   11   12 2
    25   12   13 1
    26   12   47 1
    27   13   14 2
    28   13   48 1
    29   14   15 1
    30   14   29 1
    31   15   16 1
    32   16   17 1
    33   16   49 1
    34   16   50 1
    35   17   18 2
    36   17   19 1
    37   19   20 2
    38   20   21 1
    39   20   22 1
    40   21   51 1
    41   21   52 1
    42   22   23 1
    43   22   53 1
    44   23   24 1
    45   23   54 1
    46   23   55 1
    47   24   28 1
    48   24   25 2
    49   25   26 1
    50   25   56 1
    51   26   27 2
    52   26   57 1
    53   27   28 1
    54   27   58 1
    55   29   34 ar
    56   29   30 ar
    57   30   31 ar
    58   30   59 1
    59   31   32 ar
    60   31   60 1
    61   32   33 ar
    62   32   61 1
    63   33   34 ar
    64   33   62 1
    65   34   35 1
@<TRIPOS>MOLECULE
CHEMBL270154__1
   61    64     0     0     0
SMALL
USER_CHARGES

@<TRIPOS>ATOM
      1 C1         -2.7156   -2.8419    0.7210 C.3       1 <0>        -0.1511
      2 C2         -1.5288   -2.0522    0.1655 C.3       1 <0>        -0.1211
      3 C3         -0.8682   -2.8493   -0.9610 C.3       1 <0>         0.0556
      4 O1          0.2403   -2.1117   -1.4798 O.3       1 <0>        -0.3185
      5 C4          0.9413   -2.6833   -2.4939 C.ar      1 <0>         0.1229
      6 C5          0.5635   -3.9273   -2.9816 C.ar      1 <0>        -0.1970
      7 C6          1.2721   -4.5110   -4.0100 C.ar      1 <0>        -0.0772
      8 C7          2.3711   -3.8492   -4.5616 C.ar      1 <0>        -0.0481
      9 C8          2.7474   -2.5981   -4.0685 C.ar      1 <0>        -0.0657
     10 C9          2.0300   -2.0192   -3.0434 C.ar      1 <0>        -0.1516
     11 C10         3.1339   -4.4712   -5.6636 C.2       1 <0>         0.0765
     12 C11         3.9092   -3.8118   -6.5728 C.2       1 <0>        -0.1868
     13 C12         4.4513   -4.7671   -7.4398 C.2       1 <0>        -0.1639
     14 C13         3.9963   -5.9908   -7.0430 C.2       1 <0>         0.0559
     15 N1          3.1904   -5.8119   -5.9468 N.pl3     1 <0>        -0.3989
     16 C14         2.5037   -6.8732   -5.2064 C.3       1 <0>         0.0669
     17 C15         1.1792   -7.1674   -5.8625 C.2       1 <0>         0.4855
     18 O2          0.8414   -6.5499   -6.8533 O.2       1 <0>        -0.5767
     19 N2          0.3792   -8.1038   -5.3567 N.2       1 <0>        -0.7309
     20 C16        -0.0831   -9.0732   -6.1361 C.2       1 <0>         0.6391
     21 N3         -0.9929   -9.9629   -5.6496 N.2       1 <0>        -0.8840
     22 N4          0.3520   -9.1787   -7.4227 N.pl3     1 <0>        -0.7819
     23 C17        -0.2335  -10.1832   -8.3140 C.3       1 <0>         0.2130
     24 C18         0.4177  -10.0923   -9.6700 C.2       1 <0>        -0.1361
     25 C19         1.5133  -10.7402  -10.1359 C.2       1 <0>        -0.1499
     26 C20         1.9350  -10.4988  -11.4300 C.2       1 <0>        -0.1520
     27 C21         1.2404   -9.6214  -12.1948 C.2       1 <0>        -0.1844
     28 S1         -0.0584   -9.1092  -11.0821 S.3       1 <0>         0.0485
     29 C22         4.3196   -7.2843   -7.6796 C.ar      1 <0>         0.0020
     30 C23         4.7681   -8.3551   -6.9039 C.ar      1 <0>        -0.1050
     31 C24         5.0678   -9.5601   -7.5045 C.ar      1 <0>        -0.1119
     32 C25         4.9253   -9.7098   -8.8729 C.ar      1 <0>        -0.1089
     33 C26         4.4815   -8.6537   -9.6483 C.ar      1 <0>        -0.1044
     34 C27         4.1724   -7.4434   -9.0598 C.ar      1 <0>        -0.0119
     35 Cl1         3.6086   -6.1211  -10.0331 Cl        1 <0>        -0.0549
     36 H1         -3.4404   -3.0161   -0.0743 H         1 <0>         0.0587
     37 H2         -2.3658   -3.7984    1.1095 H         1 <0>         0.0588
     38 H3         -3.1863   -2.2740    1.5236 H         1 <0>         0.0625
     39 H4         -1.8787   -1.0958   -0.2230 H         1 <0>         0.0715
     40 H5         -0.8040   -1.8781    0.9608 H         1 <0>         0.0716
     41 H6         -0.5183   -3.8058   -0.5725 H         1 <0>         0.0634
     42 H7         -1.5929   -3.0234   -1.7563 H         1 <0>         0.0630
     43 H8         -0.2866   -4.4385   -2.5544 H         1 <0>         0.1291
     44 H9          0.9780   -5.4789   -4.3882 H         1 <0>         0.1380
     45 H10         3.5969   -2.0831   -4.4921 H         1 <0>         0.1328
     46 H11         2.3179   -1.0499   -2.6641 H         1 <0>         0.1301
     47 H12         4.0743   -2.7453   -6.6156 H         1 <0>         0.1346
     48 H13         5.1106   -4.5712   -8.2725 H         1 <0>         0.1328
     49 H14         3.1180   -7.7736   -5.2083 H         1 <0>         0.1016
     50 H15         2.3363   -6.5497   -4.1790 H         1 <0>         0.1072
     51 H16        -1.3308  -10.6715   -6.2193 H         1 <0>         0.2878
     52 H17         1.0496   -8.5888   -7.7487 H         1 <0>         0.3839
     53 H18        -0.0698  -11.1774   -7.8982 H         1 <0>         0.0699
     54 H19        -1.3039  -10.0022   -8.4120 H         1 <0>         0.0610
     55 H20         2.0490  -11.4343   -9.5054 H         1 <0>         0.1289
     56 H21         2.8051  -11.0016  -11.8257 H         1 <0>         0.1281
     57 H22         1.4229   -9.3148  -13.2142 H         1 <0>         0.1805
     58 H23         4.8806   -8.2400   -5.8360 H         1 <0>         0.1269
     59 H24         5.4148  -10.3889   -6.9053 H         1 <0>         0.1271
     60 H25         5.1622  -10.6554   -9.3376 H         1 <0>         0.1272
     61 H26         4.3729   -8.7772  -10.7157 H         1 <0>         0.1299
@<TRIPOS>BOND
     1    1    2 1
     2    1   36 1
     3    1   37 1
     4    1   38 1
     5    2    3 1
     6    2   39 1
     7    2   40 1
     8    3    4 1
     9    3   41 1
    10    3   42 1
    11    4    5 1
    12    5   10 ar
    13    5    6 ar
    14    6    7 ar
    15    6   43 1
    16    7    8 ar
    17    7   44 1
    18    8    9 ar
    19    8   11 1
    20    9   10 ar
    21    9   45 1
    22   10   46 1
    23   11   15 1
    24   11   12 2
    25   12   13 1
    26   12   47 1
    27   13   14 2
    28   13   48 1
    29   14   15 1
    30   14   29 1
    31   15   16 1
    32   16   17 1
    33   16   49 1
    34   16   50 1
    35   17   18 2
    36   17   19 1
    37   19   20 2
    38   20   21 1
    39   20   22 1
    40   21   51 1
    41   22   23 1
    42   22   52 1
    43   23   24 1
    44   23   53 1
    45   23   54 1
    46   24   28 1
    47   24   25 2
    48   25   26 1
    49   25   55 1
    50   26   27 2
    51   26   56 1
    52   27   28 1
    53   27   57 1
    54   29   34 ar
    55   29   30 ar
    56   30   31 ar
    57   30   58 1
    58   31   32 ar
    59   31   59 1
    60   32   33 ar
    61   32   60 1
    62   33   34 ar
    63   33   61 1
    64   34   35 1
@<TRIPOS>MOLECULE
CHEMBL270154__2
   62    65     0     0     0
SMALL
USER_CHARGES

@<TRIPOS>ATOM
      1 C1          1.9093   -2.3585    1.9094 C.3       1 <0>        -0.1507
      2 C2          0.7777   -1.6336    1.1780 C.3       1 <0>        -0.1237
      3 C3         -0.4790   -2.5063    1.1905 C.3       1 <0>         0.0574
      4 O1         -1.5358   -1.8293    0.5074 O.3       1 <0>        -0.3146
      5 C4         -2.7303   -2.4723    0.4276 C.ar      1 <0>         0.1313
      6 C5         -2.8805   -3.7277    1.0017 C.ar      1 <0>        -0.1999
      7 C6         -4.0904   -4.3836    0.9227 C.ar      1 <0>        -0.0835
      8 C7         -5.1659   -3.7836    0.2646 C.ar      1 <0>        -0.0548
      9 C8         -5.0107   -2.5209   -0.3110 C.ar      1 <0>        -0.0590
     10 C9         -3.7989   -1.8696   -0.2228 C.ar      1 <0>        -0.1457
     11 C10        -6.4645   -4.4832    0.1770 C.2       1 <0>         0.0816
     12 C11        -7.6805   -3.8936   -0.0129 C.2       1 <0>        -0.1772
     13 C12        -8.6445   -4.9077   -0.0350 C.2       1 <0>        -0.1496
     14 C13        -7.9981   -6.0964    0.1417 C.2       1 <0>         0.0486
     15 N1         -6.6562   -5.8383    0.2665 N.pl3     1 <0>        -0.4154
     16 C14        -5.6062   -6.8405    0.4650 C.3       1 <0>         0.0728
     17 C15        -5.4827   -7.1544    1.9338 C.2       1 <0>         0.4934
     18 O2         -6.2025   -6.5947    2.7375 O.2       1 <0>        -0.5100
     19 N2         -4.5850   -8.0448    2.3511 N.2       1 <0>        -0.7021
     20 C16        -4.9622   -9.0544    3.1253 C.2       1 <0>         0.7083
     21 N3         -6.2834   -9.2507    3.3931 N.pl3     1 <0>        -0.8587
     22 N4         -4.0282   -9.8945    3.6522 N.pl3     1 <0>        -0.6988
     23 C17        -4.4445  -11.0091    4.5070 C.3       1 <0>         0.2022
     24 C18        -3.2293  -11.7789    4.9561 C.2       1 <0>        -0.1890
     25 C19        -2.4647  -11.5984    6.0606 C.2       1 <0>        -0.1181
     26 C20        -1.3849  -12.4351    6.2724 C.2       1 <0>        -0.1669
     27 C21        -1.1227  -13.4113    5.3693 C.2       1 <0>        -0.1546
     28 S1         -2.4280  -13.1702    4.1755 S.3       1 <0>         0.0630
     29 C22        -8.6324   -7.4301    0.1857 C.ar      1 <0>        -0.0051
     30 C23        -8.1382   -8.4681   -0.6067 C.ar      1 <0>        -0.1098
     31 C24        -8.7347   -9.7109   -0.5605 C.ar      1 <0>        -0.1117
     32 C25        -9.8210   -9.9309    0.2683 C.ar      1 <0>        -0.1075
     33 C26       -10.3164   -8.9077    1.0563 C.ar      1 <0>        -0.1095
     34 C27        -9.7256   -7.6600    1.0246 C.ar      1 <0>        -0.0193
     35 Cl1       -10.3439   -6.3786    2.0194 Cl        1 <0>        -0.0486
     36 H1          2.8046   -1.7368    1.9005 H         1 <0>         0.0655
     37 H2          1.6110   -2.5512    2.9399 H         1 <0>         0.0576
     38 H3          2.1185   -3.3039    1.4089 H         1 <0>         0.0578
     39 H4          0.5685   -0.6882    1.6785 H         1 <0>         0.0739
     40 H5          1.0760   -1.4409    0.1475 H         1 <0>         0.0741
     41 H6         -0.2698   -3.4517    0.6900 H         1 <0>         0.0626
     42 H7         -0.7772   -2.6990    2.2210 H         1 <0>         0.0621
     43 H8         -2.0481   -4.1910    1.5105 H         1 <0>         0.1289
     44 H9         -4.2061   -5.3603    1.3688 H         1 <0>         0.1244
     45 H10        -5.8400   -2.0535   -0.8212 H         1 <0>         0.1367
     46 H11        -3.6792   -0.8912   -0.6642 H         1 <0>         0.1354
     47 H12        -7.8654   -2.8355   -0.1253 H         1 <0>         0.1413
     48 H13        -9.7079   -4.7737   -0.1679 H         1 <0>         0.1391
     49 H14        -5.8630   -7.7487   -0.0803 H         1 <0>         0.1147
     50 H15        -4.6576   -6.4509    0.0957 H         1 <0>         0.1249
     51 H16        -6.9537   -8.7038    2.9544 H         1 <0>         0.4203
     52 H17        -6.5538   -9.9373    4.0226 H         1 <0>         0.4024
     53 H18        -3.0874   -9.7547    3.4615 H         1 <0>         0.4274
     54 H19        -4.9716  -10.6212    5.3787 H         1 <0>         0.0932
     55 H20        -5.1062  -11.6694    3.9464 H         1 <0>         0.0866
     56 H21        -2.6953  -10.8125    6.7645 H         1 <0>         0.1369
     57 H22        -0.7594  -12.3126    7.1442 H         1 <0>         0.1388
     58 H23        -0.3318  -14.1468    5.3731 H         1 <0>         0.1900
     59 H24        -7.2911   -8.2982   -1.2546 H         1 <0>         0.1289
     60 H25        -8.3532  -10.5145   -1.1730 H         1 <0>         0.1313
     61 H26       -10.2843  -10.9059    0.2997 H         1 <0>         0.1335
     62 H27       -11.1647   -9.0860    1.7006 H         1 <0>         0.1368
@<TRIPOS>BOND
     1    1    2 1
     2    1   36 1
     3    1   37 1
     4    1   38 1
     5    2    3 1
     6    2   39 1
     7    2   40 1
     8    3    4 1
     9    3   41 1
    10    3   42 1
    11    4    5 1
    12    5   10 ar
    13    5    6 ar
    14    6    7 ar
    15    6   43 1
    16    7    8 ar
    17    7   44 1
    18    8    9 ar
    19    8   11 1
    20    9   10 ar
    21    9   45 1
    22   10   46 1
    23   11   15 1
    24   11   12 2
    25   12   13 1
    26   12   47 1
    27   13   14 2
    28   13   48 1
    29   14   15 1
    30   14   29 1
    31   15   16 1
    32   16   17 1
    33   16   49 1
    34   16   50 1
    35   17   18 2
    36   17   19 1
    37   19   20 2
    38   20   21 1
    39   20   22 1
    40   21   51 1
    41   21   52 1
    42   22   23 1
    43   22   53 1
    44   23   24 1
    45   23   54 1
    46   23   55 1
    47   24   28 1
    48   24   25 2
    49   25   26 1
    50   25   56 1
    51   26   27 2
    52   26   57 1
    53   27   28 1
    54   27   58 1
    55   29   34 ar
    56   29   30 ar
    57   30   31 ar
    58   30   59 1
    59   31   32 ar
    60   31   60 1
    61   32   33 ar
    62   32   61 1
    63   33   34 ar
    64   33   62 1
    65   34   35 1
@<TRIPOS>MOLECULE
CHEMBL270154__3
   61    64     0     0     0
SMALL
USER_CHARGES

@<TRIPOS>ATOM
      1 C1         -2.8076   -1.9879    0.3284 C.3       1 <0>        -0.1506
      2 C2         -1.5789   -1.2890   -0.2570 C.3       1 <0>        -0.1214
      3 C3         -0.9195   -2.2004   -1.2940 C.3       1 <0>         0.0567
      4 O1          0.2280   -1.5475   -1.8408 O.3       1 <0>        -0.3188
      5 C4          0.9332   -2.2263   -2.7835 C.ar      1 <0>         0.1200
      6 C5          0.5226   -3.4932   -3.1765 C.ar      1 <0>        -0.1981
      7 C6          1.2353   -4.1853   -4.1322 C.ar      1 <0>        -0.0758
      8 C7          2.3714   -3.6104   -4.7055 C.ar      1 <0>        -0.0433
      9 C8          2.7805   -2.3360   -4.3078 C.ar      1 <0>        -0.0670
     10 C9          2.0591   -1.6486   -3.3552 C.ar      1 <0>        -0.1518
     11 C10         3.1387   -4.3489   -5.7299 C.2       1 <0>         0.0734
     12 C11         3.9593   -3.7953   -6.6694 C.2       1 <0>        -0.1870
     13 C12         4.4884   -4.8383   -7.4377 C.2       1 <0>        -0.1678
     14 C13         3.9804   -6.0080   -6.9523 C.2       1 <0>         0.0619
     15 N1          3.1544   -5.7099   -5.8978 N.pl3     1 <0>        -0.3943
     16 C14         2.4123   -6.6811   -5.0901 C.3       1 <0>         0.0858
     17 C15         1.1054   -7.0036   -5.7677 C.2       1 <0>         0.4528
     18 O2          0.8212   -6.4732   -6.8237 O.2       1 <0>        -0.5405
     19 N2          0.2620   -7.8695   -5.2094 N.2       1 <0>        -0.7452
     20 C16        -0.8888   -8.1536   -5.8060 C.2       1 <0>         0.5943
     21 N3         -1.2073   -7.5591   -6.9897 N.2       1 <0>        -0.8396
     22 N4         -1.7517   -9.0396   -5.2348 N.pl3     1 <0>        -0.7541
     23 C17        -3.0221   -9.3531   -5.8935 C.3       1 <0>         0.2211
     24 C18        -3.7856  -10.3521   -5.0627 C.2       1 <0>        -0.1353
     25 C19        -4.6867  -10.1296   -4.0749 C.2       1 <0>        -0.1525
     26 C20        -5.2698  -11.2120   -3.4431 C.2       1 <0>        -0.1543
     27 C21        -4.9231  -12.4640   -3.8301 C.2       1 <0>        -0.1836
     28 S1         -3.7436  -12.1356   -5.1294 S.3       1 <0>         0.0420
     29 C22         4.2732   -7.3610   -7.4688 C.ar      1 <0>         0.0066
     30 C23         4.6640   -8.3764   -6.5938 C.ar      1 <0>        -0.1020
     31 C24         4.9354   -9.6374   -7.0824 C.ar      1 <0>        -0.1147
     32 C25         4.8217   -9.8978   -8.4369 C.ar      1 <0>        -0.1130
     33 C26         4.4351   -8.8972   -9.3103 C.ar      1 <0>        -0.1130
     34 C27         4.1547   -7.6317   -8.8343 C.ar      1 <0>        -0.0085
     35 Cl1         3.6626   -6.3787   -9.9305 Cl        1 <0>        -0.0543
     36 H1         -3.5178   -2.2034   -0.4699 H         1 <0>         0.0581
     37 H2         -2.5030   -2.9197    0.8049 H         1 <0>         0.0579
     38 H3         -3.2774   -1.3386    1.0672 H         1 <0>         0.0625
     39 H4         -1.8836   -0.3572   -0.7336 H         1 <0>         0.0719
     40 H5         -0.8687   -1.0735    0.5413 H         1 <0>         0.0718
     41 H6         -0.6149   -3.1321   -0.8175 H         1 <0>         0.0618
     42 H7         -1.6297   -2.4158   -2.0923 H         1 <0>         0.0619
     43 H8         -0.3562   -3.9371   -2.7325 H         1 <0>         0.1256
     44 H9          0.9157   -5.1710   -4.4367 H         1 <0>         0.1405
     45 H10         3.6589   -1.8879   -4.7485 H         1 <0>         0.1328
     46 H11         2.3725   -0.6612   -3.0500 H         1 <0>         0.1294
     47 H12         4.1632   -2.7424   -6.7970 H         1 <0>         0.1334
     48 H13         5.1746   -4.7359   -8.2653 H         1 <0>         0.1321
     49 H14         3.0015   -7.5920   -4.9849 H         1 <0>         0.0937
     50 H15         2.2161   -6.2594   -4.1043 H         1 <0>         0.0996
     51 H16        -2.0485   -7.7667   -7.4258 H         1 <0>         0.2645
     52 H17        -1.5249   -9.4629   -4.3921 H         1 <0>         0.3815
     53 H18        -3.6114   -8.4422   -5.9987 H         1 <0>         0.0705
     54 H19        -2.8260   -9.7748   -6.8793 H         1 <0>         0.0623
     55 H20        -4.9451   -9.1217   -3.7855 H         1 <0>         0.1331
     56 H21        -5.9905  -11.0624   -2.6528 H         1 <0>         0.1309
     57 H22        -5.2728  -13.4137   -3.4530 H         1 <0>         0.1828
     58 H23         4.7540   -8.1748   -5.5366 H         1 <0>         0.1273
     59 H24         5.2377  -10.4234   -6.4064 H         1 <0>         0.1270
     60 H25         5.0362  -10.8869   -8.8138 H         1 <0>         0.1279
     61 H26         4.3487   -9.1072  -10.3661 H         1 <0>         0.1313
@<TRIPOS>BOND
     1    1    2 1
     2    1   36 1
     3    1   37 1
     4    1   38 1
     5    2    3 1
     6    2   39 1
     7    2   40 1
     8    3    4 1
     9    3   41 1
    10    3   42 1
    11    4    5 1
    12    5   10 ar
    13    5    6 ar
    14    6    7 ar
    15    6   43 1
    16    7    8 ar
    17    7   44 1
    18    8    9 ar
    19    8   11 1
    20    9   10 ar
    21    9   45 1
    22   10   46 1
    23   11   15 1
    24   11   12 2
    25   12   13 1
    26   12   47 1
    27   13   14 2
    28   13   48 1
    29   14   15 1
    30   14   29 1
    31   15   16 1
    32   16   17 1
    33   16   49 1
    34   16   50 1
    35   17   18 2
    36   17   19 1
    37   19   20 2
    38   20   21 1
    39   20   22 1
    40   21   51 1
    41   22   23 1
    42   22   52 1
    43   23   24 1
    44   23   53 1
    45   23   54 1
    46   24   28 1
    47   24   25 2
    48   25   26 1
    49   25   55 1
    50   26   27 2
    51   26   56 1
    52   27   28 1
    53   27   57 1
    54   29   34 ar
    55   29   30 ar
    56   30   31 ar
    57   30   58 1
    58   31   32 ar
    59   31   59 1
    60   32   33 ar
    61   32   60 1
    62   33   34 ar
    63   33   61 1
    64   34   35 1
@<TRIPOS>MOLECULE
CHEMBL504197
   80    84     0     0     0
SMALL
USER_CHARGES

@<TRIPOS>ATOM
      1 C1         -0.0187    1.5258    0.0104 C.3       1 <0>        -0.1477
      2 C2          0.0021   -0.0041    0.0020 C.3       1 <0>        -0.0506
      3 C3         -1.4117   -0.5257    0.0127 C.2       1 <0>        -0.1419
      4 C4         -2.1213   -0.8910    1.0927 C.2       1 <0>         0.0426
      5 N1         -3.3688   -1.3419    0.7104 N.pl3     1 <0>        -0.4820
      6 C5         -3.5015   -1.1636   -0.6254 C.ar      1 <0>         0.1169
      7 C6         -2.2770   -0.7252   -1.1525 C.ar      1 <0>        -0.1033
      8 C7         -2.1259   -0.5885   -2.5301 C.ar      1 <0>        -0.0171
      9 C8         -3.2182   -0.7931   -3.3687 C.ar      1 <0>        -0.1603
     10 C9         -4.4733   -1.1191   -2.8289 C.ar      1 <0>        -0.0209
     11 C10        -4.6189   -1.2816   -1.4765 C.ar      1 <0>         0.1115
     12 N2         -5.8607   -1.5105   -0.8698 N.pl3     1 <0>        -0.9537
     13 S1         -6.1668   -2.9434   -0.1411 S.o2      1 <0>         2.6164
     14 O1         -7.3906   -2.7273    0.5481 O.2       1 <0>        -0.9441
     15 O2         -6.1027   -3.8906   -1.1984 O.2       1 <0>        -0.9403
     16 C11        -4.8512   -3.2817    1.0525 C.3       1 <0>        -0.6637
     17 C12        -4.3061   -1.9797    1.6583 C.3       1 <0>         0.1381
     18 C13        -6.8869   -0.4651   -0.8874 C.3       1 <0>         0.0856
     19 C14        -3.0566   -0.6672   -4.8311 C.2       1 <0>         0.5706
     20 O3         -4.0090   -0.8453   -5.5654 O.2       1 <0>        -0.5049
     21 N3         -1.8533   -0.3549   -5.3517 N.am      1 <0>        -0.7269
     22 C15        -1.6930   -0.2300   -6.8025 C.3       1 <0>         0.1284
     23 H1         -2.3341   -0.9559   -7.3027 H         1 <0>         0.1095
     24 C16        -2.0851    1.1829   -7.2392 C.3       1 <0>        -0.1016
     25 C17        -3.5538    1.3994   -6.9803 C.ar      1 <0>        -0.0783
     26 C18        -4.4813    1.0843   -7.9556 C.ar      1 <0>        -0.1065
     27 C19        -5.8286    1.2828   -7.7181 C.ar      1 <0>        -0.1111
     28 C20        -6.2483    1.7961   -6.5052 C.ar      1 <0>        -0.1104
     29 C21        -5.3208    2.1104   -5.5295 C.ar      1 <0>        -0.1088
     30 C22        -3.9739    1.9078   -5.7654 C.ar      1 <0>        -0.1042
     31 C23        -0.2337   -0.4937   -7.1789 C.3       1 <0>         0.0759
     32 H2          0.0721   -1.4649   -6.7899 H         1 <0>         0.1334
     33 C24        -0.0906   -0.4866   -8.7022 C.3       1 <0>        -0.0501
     34 N4          1.2833   -0.8574   -9.0667 N.4       1 <0>        -0.5024
     35 C25         1.4206   -0.8505  -10.5293 C.3       1 <0>         0.0250
     36 C26         0.5336   -1.9428  -11.1300 C.3       1 <0>        -0.1423
     37 C27         0.6767   -1.9357  -12.6533 C.3       1 <0>        -0.1179
     38 C28         2.1360   -2.1993  -13.0297 C.3       1 <0>        -0.1324
     39 C29         3.0231   -1.1070  -12.4290 C.3       1 <0>        -0.1177
     40 C30         2.8800   -1.1142  -10.9057 C.3       1 <0>        -0.1405
     41 O4          0.5948    0.5265   -6.6179 O.3       1 <0>        -0.5496
     42 H3          1.0039    1.9031    0.0027 H         1 <0>         0.0583
     43 H4         -0.5459    1.8868   -0.8726 H         1 <0>         0.0537
     44 H5         -0.5289    1.8773    0.9072 H         1 <0>         0.0557
     45 H6          0.5123   -0.3556   -0.8948 H         1 <0>         0.0709
     46 H7          0.5293   -0.3651    0.8851 H         1 <0>         0.0738
     47 H8         -1.7674   -0.8398    2.1118 H         1 <0>         0.1758
     48 H9         -1.1650   -0.3245   -2.9464 H         1 <0>         0.1286
     49 H10        -5.3238   -1.2473   -3.4820 H         1 <0>         0.1475
     50 H11        -5.2458   -3.9095    1.8514 H         1 <0>         0.1642
     51 H12        -4.0405   -3.8101    0.5510 H         1 <0>         0.1461
     52 H13        -3.7843   -2.2035    2.5887 H         1 <0>         0.1232
     53 H14        -5.1337   -1.3002    1.8622 H         1 <0>         0.0968
     54 H15        -7.5055   -0.5782   -1.7777 H         1 <0>         0.0672
     55 H16        -7.5106   -0.5532    0.0021 H         1 <0>         0.0950
     56 H17        -6.4079    0.5140   -0.8998 H         1 <0>         0.0779
     57 H18        -1.0935   -0.2128   -4.7658 H         1 <0>         0.4049
     58 H19        -1.5051    1.9121   -6.6735 H         1 <0>         0.0818
     59 H20        -1.8820    1.3038   -8.3033 H         1 <0>         0.0781
     60 H21        -4.1534    0.6832   -8.9033 H         1 <0>         0.1111
     61 H22        -6.5532    1.0373   -8.4804 H         1 <0>         0.1191
     62 H23        -7.3008    1.9519   -6.3199 H         1 <0>         0.1196
     63 H24        -5.6487    2.5117   -4.5820 H         1 <0>         0.1173
     64 H25        -3.2495    2.1498   -5.0018 H         1 <0>         0.1107
     65 H26        -0.7877   -1.2035   -9.1360 H         1 <0>         0.1477
     66 H27        -0.3110    0.5107   -9.0832 H         1 <0>         0.1413
     67 H28         1.9286   -0.1937   -8.6652 H         1 <0>         0.4322
     68 H29         1.1148    0.1207  -10.9184 H         1 <0>         0.1394
     69 H30         0.8394   -2.9140  -10.7409 H         1 <0>         0.0881
     70 H31        -0.5060   -1.7550  -10.8618 H         1 <0>         0.0868
     71 H32         0.0448   -2.7139  -13.0813 H         1 <0>         0.0853
     72 H33         0.3709   -0.9645  -13.0424 H         1 <0>         0.0747
     73 H34         2.4418   -3.1705  -12.6406 H         1 <0>         0.0706
     74 H35         2.2380   -2.1942  -14.1149 H         1 <0>         0.0799
     75 H36         4.0627   -1.2949  -12.6972 H         1 <0>         0.0855
     76 H37         2.7173   -0.1358  -12.8181 H         1 <0>         0.0747
     77 H38         3.5119   -0.3360  -10.4778 H         1 <0>         0.0881
     78 H39         3.1858   -2.0854  -10.5166 H         1 <0>         0.0876
     79 H40         0.3789    1.4192   -6.9205 H         1 <0>         0.3914
     80 H41         1.4873   -1.7805   -8.7141 H         1 <0>         0.4268
@<TRIPOS>BOND
     1    1    2 1
     2    1   42 1
     3    1   43 1
     4    1   44 1
     5    2    3 1
     6    2   45 1
     7    2   46 1
     8    3    7 1
     9    3    4 2
    10    4    5 1
    11    4   47 1
    12    5   17 1
    13    5    6 1
    14    6   11 ar
    15    6    7 ar
    16    7    8 ar
    17    8    9 ar
    18    8   48 1
    19    9   10 ar
    20    9   19 1
    21   10   11 ar
    22   10   49 1
    23   11   12 1
    24   12   13 1
    25   12   18 1
    26   13   14 2
    27   13   15 2
    28   13   16 1
    29   16   17 1
    30   16   50 1
    31   16   51 1
    32   17   52 1
    33   17   53 1
    34   18   54 1
    35   18   55 1
    36   18   56 1
    37   19   20 2
    38   19   21 am
    39   21   22 1
    40   21   57 1
    41   22   23 1
    42   22   24 1
    43   22   31 1
    44   24   25 1
    45   24   58 1
    46   24   59 1
    47   25   30 ar
    48   25   26 ar
    49   26   27 ar
    50   26   60 1
    51   27   28 ar
    52   27   61 1
    53   28   29 ar
    54   28   62 1
    55   29   30 ar
    56   29   63 1
    57   30   64 1
    58   31   32 1
    59   31   33 1
    60   31   41 1
    61   33   34 1
    62   33   65 1
    63   33   66 1
    64   34   35 1
    65   34   67 1
    66   34   80 1
    67   35   40 1
    68   35   36 1
    69   35   68 1
    70   36   37 1
    71   36   69 1
    72   36   70 1
    73   37   38 1
    74   37   71 1
    75   37   72 1
    76   38   39 1
    77   38   73 1
    78   38   74 1
    79   39   40 1
    80   39   75 1
    81   39   76 1
    82   40   77 1
    83   40   78 1
    84   41   79 1
@<TRIPOS>MOLECULE
CHEMBL269943
   65    68     0     0     0
SMALL
USER_CHARGES

@<TRIPOS>ATOM
      1 C1          2.5375   -3.9362    2.3112 C.3       1 <0>        -0.1506
      2 C2          1.5343   -3.0480    1.5727 C.3       1 <0>        -0.1238
      3 C3          0.1747   -3.7478    1.5212 C.3       1 <0>         0.0576
      4 O1         -0.7623   -2.9182    0.8314 O.3       1 <0>        -0.3146
      5 C4         -2.0273   -3.3959    0.6971 C.ar      1 <0>         0.1312
      6 C5         -2.3584   -4.6368    1.2251 C.ar      1 <0>        -0.1999
      7 C6         -3.6404   -5.1254    1.0907 C.ar      1 <0>        -0.0832
      8 C7         -4.6068   -4.3704    0.4228 C.ar      1 <0>        -0.0545
      9 C8         -4.2697   -3.1229   -0.1063 C.ar      1 <0>        -0.0592
     10 C9         -2.9867   -2.6394    0.0371 C.ar      1 <0>        -0.1458
     11 C10        -5.9820   -4.8903    0.2759 C.2       1 <0>         0.0835
     12 C11        -7.1016   -4.1421    0.0539 C.2       1 <0>        -0.1777
     13 C12        -8.1895   -5.0190   -0.0216 C.2       1 <0>        -0.1487
     14 C13        -7.7128   -6.2852    0.1557 C.2       1 <0>         0.0481
     15 N1         -6.3542   -6.2091    0.3330 N.pl3     1 <0>        -0.4158
     16 C14        -5.4539   -7.3444    0.5500 C.3       1 <0>         0.0729
     17 C15        -5.3546   -7.6317    2.0260 C.2       1 <0>         0.4924
     18 O2         -5.9761   -6.9534    2.8203 O.2       1 <0>        -0.5091
     19 N2         -4.5861   -8.6286    2.4599 N.2       1 <0>        -0.6996
     20 C16        -5.0907   -9.5519    3.2685 C.2       1 <0>         0.7076
     21 N3         -4.2785  -10.5047    3.8053 N.pl3     1 <0>        -0.8207
     22 N4         -6.4211   -9.5469    3.5617 N.pl3     1 <0>        -0.7345
     23 C17        -6.9581  -10.4912    4.5447 C.3       1 <0>         0.1520
     24 C18        -8.4437  -10.2803    4.6845 C.ar      1 <0>        -0.1357
     25 C19        -8.9403   -9.5465    5.7456 C.ar      1 <0>        -0.0432
     26 C20       -10.3023   -9.3516    5.8761 C.ar      1 <0>        -0.1343
     27 C21       -11.1722   -9.8911    4.9439 C.ar      1 <0>         0.1143
     28 C22       -10.6764  -10.6270    3.8794 C.ar      1 <0>         0.0321
     29 C23        -9.3095  -10.8166    3.7473 C.ar      1 <0>         0.1199
     30 F1         -8.8233  -11.5286    2.7072 F         1 <0>        -0.1101
     31 F2        -11.5236  -11.1547    2.9690 F         1 <0>        -0.1116
     32 F3        -12.5035   -9.7007    5.0721 F         1 <0>        -0.1125
     33 C24        -8.5187   -7.5235    0.1520 C.ar      1 <0>        -0.0065
     34 C25        -8.1260   -8.6136   -0.6272 C.ar      1 <0>        -0.1092
     35 C26        -8.8827   -9.7668   -0.6258 C.ar      1 <0>        -0.1082
     36 C27       -10.0293   -9.8456    0.1452 C.ar      1 <0>        -0.1011
     37 C28       -10.4250   -8.7700    0.9198 C.ar      1 <0>        -0.1111
     38 C29        -9.6741   -7.6113    0.9325 C.ar      1 <0>        -0.0184
     39 Cl1       -10.1679   -6.2648    1.9107 Cl        1 <0>        -0.0504
     40 H1          3.5061   -3.4377    2.3479 H         1 <0>         0.0655
     41 H2          2.1837   -4.1178    3.3261 H         1 <0>         0.0576
     42 H3          2.6374   -4.8860    1.7859 H         1 <0>         0.0578
     43 H4          1.4344   -2.0982    2.0980 H         1 <0>         0.0739
     44 H5          1.8881   -2.8664    0.5578 H         1 <0>         0.0741
     45 H6          0.2746   -4.6976    0.9959 H         1 <0>         0.0625
     46 H7         -0.1791   -3.9294    2.5361 H         1 <0>         0.0620
     47 H8         -1.6104   -5.2201    1.7415 H         1 <0>         0.1286
     48 H9         -3.8970   -6.0909    1.5010 H         1 <0>         0.1245
     49 H10        -5.0140   -2.5360   -0.6239 H         1 <0>         0.1365
     50 H11        -2.7261   -1.6729   -0.3682 H         1 <0>         0.1353
     51 H12        -7.1408   -3.0674   -0.0451 H         1 <0>         0.1412
     52 H13        -9.2201   -4.7434   -0.1898 H         1 <0>         0.1390
     53 H14        -5.8447   -8.2217    0.0345 H         1 <0>         0.1157
     54 H15        -4.4652   -7.1038    0.1593 H         1 <0>         0.1237
     55 H16        -3.3312  -10.5083    3.5965 H         1 <0>         0.4272
     56 H17        -4.6473  -11.1796    4.3964 H         1 <0>         0.4112
     57 H18        -7.0128   -8.9182    3.1197 H         1 <0>         0.4215
     58 H19        -6.7657  -11.5111    4.2115 H         1 <0>         0.0870
     59 H20        -6.4754  -10.3266    5.5080 H         1 <0>         0.0938
     60 H21        -8.2631   -9.1252    6.4738 H         1 <0>         0.1562
     61 H22       -10.6883   -8.7783    6.7060 H         1 <0>         0.1603
     62 H23        -7.2319   -8.5537   -1.2300 H         1 <0>         0.1292
     63 H24        -8.5797  -10.6105   -1.2282 H         1 <0>         0.1315
     64 H25       -10.6181  -10.7509    0.1417 H         1 <0>         0.1321
     65 H26       -11.3211   -8.8381    1.5189 H         1 <0>         0.1305
@<TRIPOS>BOND
     1    1    2 1
     2    1   40 1
     3    1   41 1
     4    1   42 1
     5    2    3 1
     6    2   43 1
     7    2   44 1
     8    3    4 1
     9    3   45 1
    10    3   46 1
    11    4    5 1
    12    5   10 ar
    13    5    6 ar
    14    6    7 ar
    15    6   47 1
    16    7    8 ar
    17    7   48 1
    18    8    9 ar
    19    8   11 1
    20    9   10 ar
    21    9   49 1
    22   10   50 1
    23   11   15 1
    24   11   12 2
    25   12   13 1
    26   12   51 1
    27   13   14 2
    28   13   52 1
    29   14   15 1
    30   14   33 1
    31   15   16 1
    32   16   17 1
    33   16   53 1
    34   16   54 1
    35   17   18 2
    36   17   19 1
    37   19   20 2
    38   20   21 1
    39   20   22 1
    40   21   55 1
    41   21   56 1
    42   22   23 1
    43   22   57 1
    44   23   24 1
    45   23   58 1
    46   23   59 1
    47   24   29 ar
    48   24   25 ar
    49   25   26 ar
    50   25   60 1
    51   26   27 ar
    52   26   61 1
    53   27   28 ar
    54   27   32 1
    55   28   29 ar
    56   28   31 1
    57   29   30 1
    58   33   38 ar
    59   33   34 ar
    60   34   35 ar
    61   34   62 1
    62   35   36 ar
    63   35   63 1
    64   36   37 ar
    65   36   64 1
    66   37   38 ar
    67   37   65 1
    68   38   39 1
@<TRIPOS>MOLECULE
CHEMBL269943__1
   65    68     0     0     0
SMALL
USER_CHARGES

@<TRIPOS>ATOM
      1 C1          1.9093   -2.3585    1.9094 C.3       1 <0>        -0.1508
      2 C2          0.7777   -1.6336    1.1780 C.3       1 <0>        -0.1236
      3 C3         -0.4790   -2.5063    1.1905 C.3       1 <0>         0.0574
      4 O1         -1.5358   -1.8293    0.5074 O.3       1 <0>        -0.3145
      5 C4         -2.7303   -2.4723    0.4276 C.ar      1 <0>         0.1316
      6 C5         -2.8805   -3.7277    1.0017 C.ar      1 <0>        -0.1999
      7 C6         -4.0904   -4.3836    0.9227 C.ar      1 <0>        -0.0835
      8 C7         -5.1659   -3.7836    0.2646 C.ar      1 <0>        -0.0553
      9 C8         -5.0107   -2.5209   -0.3110 C.ar      1 <0>        -0.0589
     10 C9         -3.7989   -1.8696   -0.2228 C.ar      1 <0>        -0.1456
     11 C10        -6.4645   -4.4832    0.1770 C.2       1 <0>         0.0821
     12 C11        -7.6805   -3.8936   -0.0129 C.2       1 <0>        -0.1773
     13 C12        -8.6445   -4.9077   -0.0350 C.2       1 <0>        -0.1493
     14 C13        -7.9981   -6.0964    0.1417 C.2       1 <0>         0.0480
     15 N1         -6.6562   -5.8383    0.2665 N.pl3     1 <0>        -0.4157
     16 C14        -5.6062   -6.8405    0.4650 C.3       1 <0>         0.0732
     17 C15        -5.4827   -7.1544    1.9338 C.2       1 <0>         0.4928
     18 O2         -6.2025   -6.5947    2.7375 O.2       1 <0>        -0.5085
     19 N2         -4.5850   -8.0448    2.3511 N.2       1 <0>        -0.7010
     20 C16        -4.9622   -9.0544    3.1253 C.2       1 <0>         0.7091
     21 N3         -6.2834   -9.2507    3.3931 N.pl3     1 <0>        -0.8578
     22 N4         -4.0282   -9.8945    3.6522 N.pl3     1 <0>        -0.6994
     23 C17        -4.4445  -11.0091    4.5070 C.3       1 <0>         0.1571
     24 C18        -3.2293  -11.7789    4.9561 C.ar      1 <0>        -0.1347
     25 C19        -2.8803  -12.9535    4.3160 C.ar      1 <0>        -0.0445
     26 C20        -1.7663  -13.6614    4.7260 C.ar      1 <0>        -0.1352
     27 C21        -0.9976  -13.1952    5.7789 C.ar      1 <0>         0.1150
     28 C22        -1.3458  -12.0180    6.4218 C.ar      1 <0>         0.0320
     29 C23        -2.4603  -11.3065    6.0054 C.ar      1 <0>         0.1206
     30 F1         -2.7984  -10.1555    6.6267 F         1 <0>        -0.1093
     31 F2         -0.5972  -11.5617    7.4497 F         1 <0>        -0.1114
     32 F3          0.0910  -13.8877    6.1796 F         1 <0>        -0.1126
     33 C24        -8.6324   -7.4301    0.1857 C.ar      1 <0>        -0.0048
     34 C25        -8.1382   -8.4681   -0.6067 C.ar      1 <0>        -0.1099
     35 C26        -8.7347   -9.7109   -0.5605 C.ar      1 <0>        -0.1119
     36 C27        -9.8210   -9.9309    0.2683 C.ar      1 <0>        -0.1077
     37 C28       -10.3164   -8.9077    1.0563 C.ar      1 <0>        -0.1094
     38 C29        -9.7256   -7.6600    1.0246 C.ar      1 <0>        -0.0194
     39 Cl1       -10.3439   -6.3786    2.0194 Cl        1 <0>        -0.0482
     40 H1          2.8046   -1.7368    1.9005 H         1 <0>         0.0656
     41 H2          1.6110   -2.5512    2.9399 H         1 <0>         0.0577
     42 H3          2.1185   -3.3039    1.4089 H         1 <0>         0.0577
     43 H4          0.5685   -0.6882    1.6785 H         1 <0>         0.0740
     44 H5          1.0760   -1.4409    0.1475 H         1 <0>         0.0741
     45 H6         -0.2698   -3.4517    0.6900 H         1 <0>         0.0625
     46 H7         -0.7772   -2.6990    2.2210 H         1 <0>         0.0623
     47 H8         -2.0481   -4.1910    1.5105 H         1 <0>         0.1289
     48 H9         -4.2061   -5.3603    1.3688 H         1 <0>         0.1242
     49 H10        -5.8400   -2.0535   -0.8212 H         1 <0>         0.1368
     50 H11        -3.6792   -0.8912   -0.6642 H         1 <0>         0.1355
     51 H12        -7.8654   -2.8355   -0.1253 H         1 <0>         0.1414
     52 H13        -9.7079   -4.7737   -0.1679 H         1 <0>         0.1391
     53 H14        -5.8630   -7.7487   -0.0803 H         1 <0>         0.1148
     54 H15        -4.6576   -6.4509    0.0957 H         1 <0>         0.1249
     55 H16        -6.9537   -8.7038    2.9544 H         1 <0>         0.4207
     56 H17        -6.5538   -9.9373    4.0226 H         1 <0>         0.4025
     57 H18        -3.0874   -9.7547    3.4615 H         1 <0>         0.4267
     58 H19        -4.9716  -10.6212    5.3787 H         1 <0>         0.0882
     59 H20        -5.1062  -11.6694    3.9464 H         1 <0>         0.0945
     60 H21        -3.4791  -13.3187    3.4948 H         1 <0>         0.1578
     61 H22        -1.4955  -14.5790    4.2249 H         1 <0>         0.1609
     62 H23        -7.2911   -8.2982   -1.2546 H         1 <0>         0.1288
     63 H24        -8.3532  -10.5145   -1.1730 H         1 <0>         0.1311
     64 H25       -10.2843  -10.9059    0.2997 H         1 <0>         0.1335
     65 H26       -11.1647   -9.0860    1.7006 H         1 <0>         0.1367
@<TRIPOS>BOND
     1    1    2 1
     2    1   40 1
     3    1   41 1
     4    1   42 1
     5    2    3 1
     6    2   43 1
     7    2   44 1
     8    3    4 1
     9    3   45 1
    10    3   46 1
    11    4    5 1
    12    5   10 ar
    13    5    6 ar
    14    6    7 ar
    15    6   47 1
    16    7    8 ar
    17    7   48 1
    18    8    9 ar
    19    8   11 1
    20    9   10 ar
    21    9   49 1
    22   10   50 1
    23   11   15 1
    24   11   12 2
    25   12   13 1
    26   12   51 1
    27   13   14 2
    28   13   52 1
    29   14   15 1
    30   14   33 1
    31   15   16 1
    32   16   17 1
    33   16   53 1
    34   16   54 1
    35   17   18 2
    36   17   19 1
    37   19   20 2
    38   20   21 1
    39   20   22 1
    40   21   55 1
    41   21   56 1
    42   22   23 1
    43   22   57 1
    44   23   24 1
    45   23   58 1
    46   23   59 1
    47   24   29 ar
    48   24   25 ar
    49   25   26 ar
    50   25   60 1
    51   26   27 ar
    52   26   61 1
    53   27   28 ar
    54   27   32 1
    55   28   29 ar
    56   28   31 1
    57   29   30 1
    58   33   38 ar
    59   33   34 ar
    60   34   35 ar
    61   34   62 1
    62   35   36 ar
    63   35   63 1
    64   36   37 ar
    65   36   64 1
    66   37   38 ar
    67   37   65 1
    68   38   39 1
@<TRIPOS>MOLECULE
CHEMBL537797
   77    81     0     0     0
SMALL
USER_CHARGES

@<TRIPOS>ATOM
      1 C1         -0.0187    1.5258    0.0104 C.3       1 <0>        -0.1479
      2 C2          0.0021   -0.0041    0.0020 C.3       1 <0>        -0.0486
      3 C3         -1.4117   -0.5257    0.0127 C.2       1 <0>        -0.1538
      4 C4         -2.1241   -0.8929    1.1015 C.2       1 <0>         0.0670
      5 N1         -3.3697   -1.3127    0.7301 N.pl3     1 <0>        -0.4593
      6 C5         -3.4794   -1.2325   -0.6317 C.ar      1 <0>         0.0464
      7 C6         -2.2675   -0.7225   -1.1439 C.ar      1 <0>        -0.0618
      8 C7         -2.1142   -0.5197   -2.5161 C.ar      1 <0>        -0.0464
      9 C8         -3.2032   -0.8470   -3.3319 C.ar      1 <0>        -0.1323
     10 C9         -4.4027   -1.3597   -2.8113 C.ar      1 <0>        -0.0672
     11 C10        -4.5573   -1.5689   -1.4606 C.ar      1 <0>         0.1590
     12 N2         -5.7097   -2.0843   -0.8580 N.pl3     1 <0>        -0.9288
     13 S1         -5.5232   -2.8865    0.5917 S.o2      1 <0>         2.5933
     14 O1         -4.8137   -4.0730    0.2631 O.2       1 <0>        -0.9109
     15 O2         -6.8313   -2.9520    1.1430 O.2       1 <0>        -0.9172
     16 C11        -4.4729   -1.7804    1.5873 C.3       1 <0>        -0.3876
     17 C12        -7.0284   -1.9250   -1.4759 C.3       1 <0>         0.0807
     18 C13        -3.0874   -0.6459   -4.7902 C.2       1 <0>         0.5673
     19 O3         -4.0208   -0.9233   -5.5181 O.2       1 <0>        -0.5064
     20 N3         -1.9469   -0.1547   -5.3142 N.am      1 <0>        -0.7262
     21 C14        -1.8320    0.0448   -6.7610 C.3       1 <0>         0.1284
     22 H1         -2.3790   -0.7417   -7.2808 H         1 <0>         0.1094
     23 C15        -2.4184    1.4073   -7.1361 C.3       1 <0>        -0.1021
     24 C16        -3.8978    1.4137   -6.8490 C.ar      1 <0>        -0.0776
     25 C17        -4.7926    1.0129   -7.8234 C.ar      1 <0>        -0.1065
     26 C18        -6.1497    1.0188   -7.5601 C.ar      1 <0>        -0.1112
     27 C19        -6.6118    1.4250   -6.3223 C.ar      1 <0>        -0.1109
     28 C20        -5.7169    1.8249   -5.3475 C.ar      1 <0>        -0.1091
     29 C21        -4.3596    1.8149   -5.6094 C.ar      1 <0>        -0.1041
     30 C22        -0.3577   -0.0052   -7.1672 C.3       1 <0>         0.0757
     31 H2          0.0830   -0.9401   -6.8210 H         1 <0>         0.1337
     32 C23        -0.2454    0.0782   -8.6908 C.3       1 <0>        -0.0500
     33 N4          1.1588   -0.0899   -9.0882 N.4       1 <0>        -0.5025
     34 C24         1.2666   -0.0098  -10.5510 C.3       1 <0>         0.0250
     35 C25         0.5233   -1.1886  -11.1825 C.3       1 <0>        -0.1422
     36 C26         0.6356   -1.1052  -12.7061 C.3       1 <0>        -0.1180
     37 C27         2.1099   -1.1553  -13.1123 C.3       1 <0>        -0.1324
     38 C28         2.8532    0.0236  -12.4808 C.3       1 <0>        -0.1177
     39 C29         2.7409   -0.0598  -10.9572 C.3       1 <0>        -0.1406
     40 O4          0.3365    1.0958   -6.5774 O.3       1 <0>        -0.5493
     41 H3          1.0039    1.9031    0.0027 H         1 <0>         0.0587
     42 H4         -0.5459    1.8868   -0.8726 H         1 <0>         0.0536
     43 H5         -0.5289    1.8773    0.9072 H         1 <0>         0.0554
     44 H6          0.5123   -0.3556   -0.8948 H         1 <0>         0.0723
     45 H7          0.5293   -0.3651    0.8851 H         1 <0>         0.0747
     46 H8         -1.7607   -0.8597    2.1179 H         1 <0>         0.1773
     47 H9         -1.1968   -0.1275   -2.9297 H         1 <0>         0.1367
     48 H10        -5.2142   -1.5990   -3.4826 H         1 <0>         0.1463
     49 H11        -4.0709   -2.3241    2.4422 H         1 <0>         0.1607
     50 H12        -5.0582   -0.9283    1.9331 H         1 <0>         0.1498
     51 H13        -7.2249   -2.7699   -2.1359 H         1 <0>         0.0718
     52 H14        -7.7916   -1.8859   -0.6987 H         1 <0>         0.0967
     53 H15        -7.0499   -1.0005   -2.0531 H         1 <0>         0.0854
     54 H16        -1.2022    0.0666   -4.7334 H         1 <0>         0.4057
     55 H17        -1.9311    2.1864   -6.5498 H         1 <0>         0.0820
     56 H18        -2.2533    1.5942   -8.1972 H         1 <0>         0.0782
     57 H19        -4.4316    0.6956   -8.7906 H         1 <0>         0.1112
     58 H20        -6.8489    0.7064   -8.3217 H         1 <0>         0.1190
     59 H21        -7.6721    1.4302   -6.1168 H         1 <0>         0.1195
     60 H22        -6.0779    2.1425   -4.3805 H         1 <0>         0.1170
     61 H23        -3.6602    2.1238   -4.8466 H         1 <0>         0.1110
     62 H24        -0.8479   -0.7095   -9.1432 H         1 <0>         0.1476
     63 H25        -0.6049    1.0501   -9.0289 H         1 <0>         0.1411
     64 H26         1.7165    0.6393   -8.6694 H         1 <0>         0.4323
     65 H27         0.8259    0.9251  -10.8972 H         1 <0>         0.1393
     66 H28         0.9641   -2.1235  -10.8364 H         1 <0>         0.0881
     67 H29        -0.5270   -1.1530  -10.8931 H         1 <0>         0.0867
     68 H30         0.1061   -1.9451  -13.1560 H         1 <0>         0.0853
     69 H31         0.1949   -0.1703  -13.0523 H         1 <0>         0.0747
     70 H32         2.5506   -2.0902  -12.7662 H         1 <0>         0.0707
     71 H33         2.1899   -1.0958  -14.1978 H         1 <0>         0.0798
     72 H34         3.9035   -0.0121  -12.7702 H         1 <0>         0.0856
     73 H35         2.4124    0.9585  -12.8270 H         1 <0>         0.0747
     74 H36         3.2704    0.7800  -10.5074 H         1 <0>         0.0881
     75 H37         3.1816   -0.9947  -10.6111 H         1 <0>         0.0877
     76 H38        -0.0030    1.9618   -6.8415 H         1 <0>         0.3913
     77 H39         1.4915   -0.9896   -8.7752 H         1 <0>         0.4270
@<TRIPOS>BOND
     1    1    2 1
     2    1   41 1
     3    1   42 1
     4    1   43 1
     5    2    3 1
     6    2   44 1
     7    2   45 1
     8    3    7 1
     9    3    4 2
    10    4    5 1
    11    4   46 1
    12    5   16 1
    13    5    6 1
    14    6   11 ar
    15    6    7 ar
    16    7    8 ar
    17    8    9 ar
    18    8   47 1
    19    9   10 ar
    20    9   18 1
    21   10   11 ar
    22   10   48 1
    23   11   12 1
    24   12   13 1
    25   12   17 1
    26   13   14 2
    27   13   15 2
    28   13   16 1
    29   16   49 1
    30   16   50 1
    31   17   51 1
    32   17   52 1
    33   17   53 1
    34   18   19 2
    35   18   20 am
    36   20   21 1
    37   20   54 1
    38   21   22 1
    39   21   23 1
    40   21   30 1
    41   23   24 1
    42   23   55 1
    43   23   56 1
    44   24   29 ar
    45   24   25 ar
    46   25   26 ar
    47   25   57 1
    48   26   27 ar
    49   26   58 1
    50   27   28 ar
    51   27   59 1
    52   28   29 ar
    53   28   60 1
    54   29   61 1
    55   30   31 1
    56   30   32 1
    57   30   40 1
    58   32   33 1
    59   32   62 1
    60   32   63 1
    61   33   34 1
    62   33   64 1
    63   33   77 1
    64   34   39 1
    65   34   35 1
    66   34   65 1
    67   35   36 1
    68   35   66 1
    69   35   67 1
    70   36   37 1
    71   36   68 1
    72   36   69 1
    73   37   38 1
    74   37   70 1
    75   37   71 1
    76   38   39 1
    77   38   72 1
    78   38   73 1
    79   39   74 1
    80   39   75 1
    81   40   76 1
@<TRIPOS>MOLECULE
CHEMBL211214
   52    55     0     0     0
SMALL
USER_CHARGES

@<TRIPOS>ATOM
      1 C1          0.5752    1.3754   -1.5703 C.ar      1 <0>        -0.1423
      2 C2          1.5826    2.0979   -0.9456 C.ar      1 <0>        -0.0469
      3 C3          2.6668    1.4533   -0.3870 C.ar      1 <0>        -0.1362
      4 C4          2.7510    0.0686   -0.4424 C.ar      1 <0>         0.1531
      5 C5          1.7154   -0.6651   -1.0507 C.ar      1 <0>        -0.1722
      6 C6          0.6338    0.0127   -1.6319 C.ar      1 <0>        -0.0389
      7 C7          1.7624   -2.0830   -1.0550 C.2       1 <0>         0.0900
      8 C8          2.7360   -2.7066   -0.2864 C.2       1 <0>        -0.2844
      9 C9          3.6297   -1.8427    0.5063 C.2       1 <0>         0.5258
     10 O1          4.1745   -2.2565    1.5125 O.2       1 <0>        -0.4347
     11 O2          3.8243   -0.5744    0.0771 O.3       1 <0>        -0.2669
     12 C10         2.8703   -4.1727   -0.2635 C.2       1 <0>         0.5806
     13 O3          2.1195   -4.8627   -0.9268 O.2       1 <0>        -0.5138
     14 N1          3.8252   -4.7502    0.4923 N.am      1 <0>        -0.6494
     15 C11         3.8796   -6.1453    0.6065 C.ar      1 <0>         0.1497
     16 C12         2.7356   -6.9043    0.4101 C.ar      1 <0>        -0.0999
     17 C13         2.7918   -8.2815    0.5230 C.ar      1 <0>        -0.0731
     18 C14         3.9872   -8.9059    0.8320 C.ar      1 <0>        -0.1025
     19 C15         5.1319   -8.1567    1.0297 C.ar      1 <0>        -0.0983
     20 C16         5.0857   -6.7754    0.9123 C.ar      1 <0>         0.1595
     21 N2          6.2449   -6.0156    1.1060 N.pl3     1 <0>        -0.6791
     22 C17         6.6085   -5.5204    2.4423 C.3       1 <0>         0.1454
     23 C18         8.0625   -5.9114    2.7273 C.3       1 <0>         0.0426
     24 N3          8.9183   -5.4328    1.6335 N.3       1 <0>        -0.5250
     25 C19         8.5653   -6.0753    0.3605 C.3       1 <0>         0.0384
     26 C20         7.1351   -5.6962   -0.0205 C.3       1 <0>         0.1511
     27 C21        10.3387   -5.6352    1.9492 C.3       1 <0>         0.0544
     28 C22        11.1997   -4.9078    0.9146 C.3       1 <0>         0.0794
     29 O4         10.9855   -3.4991    1.0223 O.3       1 <0>        -0.5582
     30 Br1         1.2305   -9.3141    0.2548 Br        1 <0>        -0.0449
     31 H1         -0.2643    1.8954   -2.0074 H         1 <0>         0.1408
     32 H2          1.5170    3.1748   -0.8967 H         1 <0>         0.1453
     33 H3          3.4484    2.0244    0.0918 H         1 <0>         0.1490
     34 H4         -0.1502   -0.5414   -2.1265 H         1 <0>         0.1456
     35 H5          1.0609   -2.6605   -1.6388 H         1 <0>         0.1688
     36 H6          4.4747   -4.1998    0.9571 H         1 <0>         0.4238
     37 H7          1.8008   -6.4198    0.1695 H         1 <0>         0.1570
     38 H8          4.0260   -9.9817    0.9194 H         1 <0>         0.1346
     39 H9          6.0632   -8.6472    1.2715 H         1 <0>         0.1336
     40 H10         6.5089   -4.4353    2.4703 H         1 <0>         0.0634
     41 H11         5.9551   -5.9703    3.1898 H         1 <0>         0.0742
     42 H12         8.3838   -5.4585    3.6653 H         1 <0>         0.0819
     43 H13         8.1396   -6.9961    2.8015 H         1 <0>         0.0354
     44 H14         9.2511   -5.7413   -0.4181 H         1 <0>         0.0813
     45 H15         8.6354   -7.1578    0.4676 H         1 <0>         0.0350
     46 H16         6.8296   -6.2623   -0.9004 H         1 <0>         0.0720
     47 H17         7.0870   -4.6284   -0.2338 H         1 <0>         0.0573
     48 H18        10.5504   -5.2380    2.9419 H         1 <0>         0.0833
     49 H19        10.5674   -6.7007    1.9277 H         1 <0>         0.0466
     50 H20        12.2513   -5.1304    1.0960 H         1 <0>         0.0478
     51 H21        10.9251   -5.2416   -0.0860 H         1 <0>         0.0449
     52 H22        11.5007   -2.9738    0.3948 H         1 <0>         0.3749
@<TRIPOS>BOND
     1    1    6 ar
     2    1    2 ar
     3    1   31 1
     4    2    3 ar
     5    2   32 1
     6    3    4 ar
     7    3   33 1
     8    4   11 1
     9    4    5 ar
    10    5    6 ar
    11    5    7 1
    12    6   34 1
    13    7    8 2
    14    7   35 1
    15    8    9 1
    16    8   12 1
    17    9   10 2
    18    9   11 1
    19   12   13 2
    20   12   14 am
    21   14   15 1
    22   14   36 1
    23   15   20 ar
    24   15   16 ar
    25   16   17 ar
    26   16   37 1
    27   17   18 ar
    28   17   30 1
    29   18   19 ar
    30   18   38 1
    31   19   20 ar
    32   19   39 1
    33   20   21 1
    34   21   26 1
    35   21   22 1
    36   22   23 1
    37   22   40 1
    38   22   41 1
    39   23   24 1
    40   23   42 1
    41   23   43 1
    42   24   25 1
    43   24   27 1
    44   25   26 1
    45   25   44 1
    46   25   45 1
    47   26   46 1
    48   26   47 1
    49   27   28 1
    50   27   48 1
    51   27   49 1
    52   28   29 1
    53   28   50 1
    54   28   51 1
    55   29   52 1
@<TRIPOS>MOLECULE
CHEMBL211214__1
   53    56     0     0     0
SMALL
USER_CHARGES

@<TRIPOS>ATOM
      1 C1          0.5752    1.3754   -1.5703 C.ar      1 <0>        -0.1387
      2 C2          1.5826    2.0979   -0.9456 C.ar      1 <0>        -0.0394
      3 C3          2.6668    1.4533   -0.3870 C.ar      1 <0>        -0.1366
      4 C4          2.7510    0.0686   -0.4424 C.ar      1 <0>         0.1524
      5 C5          1.7154   -0.6651   -1.0507 C.ar      1 <0>        -0.1782
      6 C6          0.6338    0.0127   -1.6319 C.ar      1 <0>        -0.0345
      7 C7          1.7624   -2.0830   -1.0550 C.2       1 <0>         0.1067
      8 C8          2.7360   -2.7066   -0.2864 C.2       1 <0>        -0.3025
      9 C9          3.6297   -1.8427    0.5063 C.2       1 <0>         0.5317
     10 O1          4.1745   -2.2565    1.5125 O.2       1 <0>        -0.4519
     11 O2          3.8243   -0.5744    0.0771 O.3       1 <0>        -0.2676
     12 C10         2.8703   -4.1727   -0.2635 C.2       1 <0>         0.5835
     13 O3          2.1195   -4.8627   -0.9268 O.2       1 <0>        -0.5046
     14 N1          3.8252   -4.7502    0.4923 N.am      1 <0>        -0.6570
     15 C11         3.8796   -6.1453    0.6065 C.ar      1 <0>         0.1635
     16 C12         2.7356   -6.9043    0.4101 C.ar      1 <0>        -0.1001
     17 C13         2.7918   -8.2815    0.5230 C.ar      1 <0>        -0.0606
     18 C14         3.9872   -8.9059    0.8320 C.ar      1 <0>        -0.1029
     19 C15         5.1319   -8.1567    1.0297 C.ar      1 <0>        -0.0906
     20 C16         5.0857   -6.7754    0.9123 C.ar      1 <0>         0.1264
     21 N2          6.2449   -6.0156    1.1060 N.pl3     1 <0>        -0.6747
     22 C17         6.6099   -5.5197    2.4420 C.3       1 <0>         0.1127
     23 C18         8.0698   -5.8949    2.7172 C.3       1 <0>        -0.0212
     24 N3          8.9175   -5.3887    1.6304 N.4       1 <0>        -0.3801
     25 C19         8.5684   -6.0578    0.3708 C.3       1 <0>        -0.0265
     26 C20         7.1362   -5.6954   -0.0197 C.3       1 <0>         0.1188
     27 C21        10.3274   -5.6520    1.9483 C.3       1 <0>        -0.0049
     28 C22        11.2185   -5.0162    0.8794 C.3       1 <0>         0.0447
     29 O4         11.0793   -3.5948    0.9271 O.3       1 <0>        -0.5798
     30 Br1         1.2305   -9.3141    0.2548 Br        1 <0>        -0.0267
     31 H1         -0.2643    1.8954   -2.0074 H         1 <0>         0.1448
     32 H2          1.5170    3.1748   -0.8967 H         1 <0>         0.1489
     33 H3          3.4484    2.0244    0.0918 H         1 <0>         0.1501
     34 H4         -0.1502   -0.5414   -2.1265 H         1 <0>         0.1485
     35 H5          1.0609   -2.6605   -1.6388 H         1 <0>         0.1706
     36 H6          4.4747   -4.1998    0.9571 H         1 <0>         0.4191
     37 H7          1.8008   -6.4198    0.1695 H         1 <0>         0.1615
     38 H8          4.0260   -9.9817    0.9194 H         1 <0>         0.1406
     39 H9          6.0632   -8.6472    1.2715 H         1 <0>         0.1346
     40 H10         6.4981   -4.4359    2.4735 H         1 <0>         0.0824
     41 H11         5.9660   -5.9793    3.1918 H         1 <0>         0.1198
     42 H12         8.3869   -5.4526    3.6616 H         1 <0>         0.1381
     43 H13         8.1617   -6.9795    2.7747 H         1 <0>         0.1320
     44 H14         9.2530   -5.7354   -0.4138 H         1 <0>         0.1357
     45 H15         8.6452   -7.1374    0.4993 H         1 <0>         0.1325
     46 H16         6.8401   -6.2711   -0.8966 H         1 <0>         0.1178
     47 H17         7.0784   -4.6296   -0.2410 H         1 <0>         0.0763
     48 H18        10.5663   -5.2243    2.9220 H         1 <0>         0.1384
     49 H19        10.4996   -6.7280    1.9719 H         1 <0>         0.1413
     50 H20        12.2581   -5.2859    1.0656 H         1 <0>         0.0951
     51 H21        10.9200   -5.3777   -0.1046 H         1 <0>         0.0713
     52 H22        11.6172   -3.1248    0.2752 H         1 <0>         0.4091
     53 H23         8.7776   -4.3943    1.5316 H         1 <0>         0.4297
@<TRIPOS>BOND
     1    1    6 ar
     2    1    2 ar
     3    1   31 1
     4    2    3 ar
     5    2   32 1
     6    3    4 ar
     7    3   33 1
     8    4   11 1
     9    4    5 ar
    10    5    6 ar
    11    5    7 1
    12    6   34 1
    13    7    8 2
    14    7   35 1
    15    8    9 1
    16    8   12 1
    17    9   10 2
    18    9   11 1
    19   12   13 2
    20   12   14 am
    21   14   15 1
    22   14   36 1
    23   15   20 ar
    24   15   16 ar
    25   16   17 ar
    26   16   37 1
    27   17   18 ar
    28   17   30 1
    29   18   19 ar
    30   18   38 1
    31   19   20 ar
    32   19   39 1
    33   20   21 1
    34   21   26 1
    35   21   22 1
    36   22   23 1
    37   22   40 1
    38   22   41 1
    39   23   24 1
    40   23   42 1
    41   23   43 1
    42   24   25 1
    43   24   27 1
    44   24   53 1
    45   25   26 1
    46   25   44 1
    47   25   45 1
    48   26   46 1
    49   26   47 1
    50   27   28 1
    51   27   48 1
    52   27   49 1
    53   28   29 1
    54   28   50 1
    55   28   51 1
    56   29   52 1
@<TRIPOS>MOLECULE
CHEMBL440957
   72    74     0     0     0
SMALL
USER_CHARGES

@<TRIPOS>ATOM
      1 C1         -0.0187    1.5258    0.0104 C.3       1 <0>        -0.1596
      2 C2          0.0021   -0.0041    0.0020 C.3       1 <0>        -0.1261
      3 C3         -1.4333   -0.5336    0.0129 C.3       1 <0>        -0.1335
      4 C4         -1.4126   -2.0635    0.0045 C.3       1 <0>        -0.1482
      5 C5         -2.8479   -2.5931    0.0153 C.3       1 <0>         0.0203
      6 H1         -3.4008   -2.1613   -0.8189 H         1 <0>         0.1515
      7 C6         -2.8303   -4.1171   -0.1188 C.3       1 <0>         0.1316
      8 H2         -2.2038   -4.5435    0.6646 H         1 <0>         0.1205
      9 C7         -2.2672   -4.5021   -1.4883 C.3       1 <0>        -0.0723
     10 C8         -2.1349   -6.0008   -1.5738 C.2       1 <0>        -0.1144
     11 C9         -0.9687   -6.6260   -1.1742 C.2       1 <0>        -0.1514
     12 C10        -0.8824   -7.9758   -1.2641 C.2       1 <0>        -0.1609
     13 S1         -2.4823   -8.4046   -1.9302 S.3       1 <0>         0.0648
     14 C11        -3.1599   -6.7564   -2.0384 C.2       1 <0>        -0.1753
     15 N1         -4.1947   -4.6346    0.0113 N.am      1 <0>        -0.7480
     16 C12        -4.3986   -5.9003    0.4270 C.2       1 <0>         0.5678
     17 O1         -3.4507   -6.6122    0.6941 O.2       1 <0>        -0.4783
     18 C13        -5.7786   -6.4237    0.5586 C.ar      1 <0>        -0.0244
     19 C14        -6.8810   -5.6224    0.2507 C.ar      1 <0>        -0.2557
     20 C15        -8.1589   -6.1501    0.3865 C.ar      1 <0>         0.4504
     21 N2         -8.3382   -7.3947    0.8016 N.ar      1 <0>        -0.5421
     22 C16        -7.3192   -8.1845    1.1027 C.ar      1 <0>         0.4334
     23 C17        -6.0101   -7.7325    0.9879 C.ar      1 <0>        -0.2041
     24 N3         -7.5617   -9.4835    1.5345 N.pl3     1 <0>        -0.9235
     25 C18        -6.4408  -10.3650    1.8701 C.3       1 <0>         0.0745
     26 S2         -9.1175  -10.0344    1.6695 S.o2      1 <0>         2.5965
     27 O2         -9.0560  -11.0567    2.6545 O.2       1 <0>        -0.9430
     28 O3         -9.8982   -8.8667    1.8851 O.2       1 <0>        -0.9065
     29 C19        -9.5005  -10.7514    0.0478 C.3       1 <0>        -0.6659
     30 N4         -9.2630   -5.3616    0.0835 N.pl3     1 <0>        -0.7145
     31 C20        -9.0749   -3.9833   -0.3760 C.3       1 <0>         0.1634
     32 C21       -10.4392   -3.3423   -0.6379 C.3       1 <0>        -0.1739
     33 C22       -10.7587   -2.9229   -2.0742 C.3       1 <0>        -0.1681
     34 C23       -10.4626   -1.8596   -1.0147 C.3       1 <0>        -0.1430
     35 C24        -9.1197   -1.1314   -1.1007 C.3       1 <0>        -0.1250
     36 N5         -3.4979   -2.2202    1.2788 N.4       1 <0>        -0.6375
     37 H3          1.0039    1.9031    0.0027 H         1 <0>         0.0634
     38 H4         -0.5459    1.8868   -0.8726 H         1 <0>         0.0579
     39 H5         -0.5289    1.8773    0.9072 H         1 <0>         0.0551
     40 H6          0.5123   -0.3556   -0.8948 H         1 <0>         0.0719
     41 H7          0.5293   -0.3651    0.8851 H         1 <0>         0.0679
     42 H8         -1.9435   -0.1821    0.9097 H         1 <0>         0.0586
     43 H9         -1.9605   -0.1726   -0.8702 H         1 <0>         0.0807
     44 H10        -0.9024   -2.4150   -0.8923 H         1 <0>         0.1208
     45 H11        -0.8854   -2.4246    0.8875 H         1 <0>         0.0958
     46 H12        -2.9413   -4.1516   -2.2699 H         1 <0>         0.0849
     47 H13        -1.2876   -4.0428   -1.6205 H         1 <0>         0.0934
     48 H14        -0.1385   -6.0477   -0.7964 H         1 <0>         0.1277
     49 H15        -0.0592   -8.6237   -1.0013 H         1 <0>         0.1842
     50 H16        -4.1334   -6.4427   -2.3852 H         1 <0>         0.1728
     51 H17        -4.9513   -4.0663   -0.2019 H         1 <0>         0.3985
     52 H18        -6.7415   -4.6064   -0.0879 H         1 <0>         0.1285
     53 H19        -5.1831   -8.3833    1.2307 H         1 <0>         0.1524
     54 H20        -6.1950  -10.2542    2.9263 H         1 <0>         0.0797
     55 H21        -6.7190  -11.3994    1.6684 H         1 <0>         0.0916
     56 H22        -5.5743  -10.0973    1.2654 H         1 <0>         0.0892
     57 H23        -8.8030  -11.5615   -0.1652 H         1 <0>         0.1279
     58 H24       -10.5186  -11.1407    0.0540 H         1 <0>         0.1354
     59 H25        -9.4101   -9.9828   -0.7198 H         1 <0>         0.1290
     60 H26       -10.1579   -5.7241    0.1762 H         1 <0>         0.4152
     61 H27        -8.5469   -3.4141    0.3891 H         1 <0>         0.0647
     62 H28        -8.4909   -3.9836   -1.2963 H         1 <0>         0.0654
     63 H29       -11.2607   -3.7198   -0.0289 H         1 <0>         0.1151
     64 H30        -9.9969   -3.1037   -2.8325 H         1 <0>         0.0975
     65 H31       -11.7906   -3.0246   -2.4104 H         1 <0>         0.1001
     66 H32       -11.2995   -1.2618   -0.6539 H         1 <0>         0.1108
     67 H33        -8.4944   -1.6102   -1.8542 H         1 <0>         0.0556
     68 H34        -9.2880   -0.0903   -1.3764 H         1 <0>         0.0658
     69 H35        -8.6202   -1.1748   -0.1329 H         1 <0>         0.0566
     70 H36        -3.5095   -1.2151    1.3673 H         1 <0>         0.4376
     71 H37        -4.4445   -2.5694    1.2860 H         1 <0>         0.4320
     72 H38        -2.9861   -2.6198    2.0511 H         1 <0>         0.4369
@<TRIPOS>BOND
     1    1    2 1
     2    1   37 1
     3    1   38 1
     4    1   39 1
     5    2    3 1
     6    2   40 1
     7    2   41 1
     8    3    4 1
     9    3   42 1
    10    3   43 1
    11    4    5 1
    12    4   44 1
    13    4   45 1
    14    5    6 1
    15    5    7 1
    16    5   36 1
    17    7    8 1
    18    7    9 1
    19    7   15 1
    20    9   10 1
    21    9   46 1
    22    9   47 1
    23   10   14 2
    24   10   11 1
    25   11   12 2
    26   11   48 1
    27   12   13 1
    28   12   49 1
    29   13   14 1
    30   14   50 1
    31   15   16 am
    32   15   51 1
    33   16   17 2
    34   16   18 1
    35   18   23 ar
    36   18   19 ar
    37   19   20 ar
    38   19   52 1
    39   20   21 ar
    40   20   30 1
    41   21   22 ar
    42   22   23 ar
    43   22   24 1
    44   23   53 1
    45   24   25 1
    46   24   26 1
    47   25   54 1
    48   25   55 1
    49   25   56 1
    50   26   27 2
    51   26   28 2
    52   26   29 1
    53   29   57 1
    54   29   58 1
    55   29   59 1
    56   30   31 1
    57   30   60 1
    58   31   32 1
    59   31   61 1
    60   31   62 1
    61   32   34 1
    62   32   33 1
    63   32   63 1
    64   33   34 1
    65   33   64 1
    66   33   65 1
    67   34   35 1
    68   34   66 1
    69   35   67 1
    70   35   68 1
    71   35   69 1
    72   36   70 1
    73   36   71 1
    74   36   72 1
@<TRIPOS>MOLECULE
CHEMBL440957__1
   72    74     0     0     0
SMALL
USER_CHARGES

@<TRIPOS>ATOM
      1 C1         -0.0187    1.5258    0.0104 C.3       1 <0>        -0.1596
      2 C2          0.0021   -0.0041    0.0020 C.3       1 <0>        -0.1261
      3 C3         -1.4333   -0.5336    0.0129 C.3       1 <0>        -0.1336
      4 C4         -1.4126   -2.0635    0.0045 C.3       1 <0>        -0.1482
      5 C5         -2.8479   -2.5931    0.0153 C.3       1 <0>         0.0204
      6 H1         -3.4008   -2.1613   -0.8189 H         1 <0>         0.1514
      7 C6         -2.8303   -4.1171   -0.1188 C.3       1 <0>         0.1316
      8 H2         -2.2038   -4.5435    0.6646 H         1 <0>         0.1204
      9 C7         -2.2672   -4.5021   -1.4883 C.3       1 <0>        -0.0724
     10 C8         -2.1349   -6.0008   -1.5738 C.2       1 <0>        -0.1143
     11 C9         -0.9687   -6.6260   -1.1742 C.2       1 <0>        -0.1514
     12 C10        -0.8824   -7.9758   -1.2641 C.2       1 <0>        -0.1608
     13 S1         -2.4823   -8.4046   -1.9302 S.3       1 <0>         0.0647
     14 C11        -3.1599   -6.7564   -2.0384 C.2       1 <0>        -0.1753
     15 N1         -4.1947   -4.6346    0.0113 N.am      1 <0>        -0.7480
     16 C12        -4.3986   -5.9003    0.4270 C.2       1 <0>         0.5677
     17 O1         -3.4507   -6.6122    0.6941 O.2       1 <0>        -0.4784
     18 C13        -5.7786   -6.4237    0.5586 C.ar      1 <0>        -0.0244
     19 C14        -6.8810   -5.6224    0.2507 C.ar      1 <0>        -0.2556
     20 C15        -8.1589   -6.1501    0.3865 C.ar      1 <0>         0.4503
     21 N2         -8.3382   -7.3947    0.8016 N.ar      1 <0>        -0.5422
     22 C16        -7.3192   -8.1845    1.1027 C.ar      1 <0>         0.4334
     23 C17        -6.0101   -7.7325    0.9879 C.ar      1 <0>        -0.2041
     24 N3         -7.5617   -9.4835    1.5345 N.pl3     1 <0>        -0.9235
     25 C18        -6.4408  -10.3650    1.8701 C.3       1 <0>         0.0745
     26 S2         -9.1175  -10.0344    1.6695 S.o2      1 <0>         2.5965
     27 O2         -9.0560  -11.0567    2.6545 O.2       1 <0>        -0.9430
     28 O3         -9.8982   -8.8667    1.8851 O.2       1 <0>        -0.9065
     29 C19        -9.5005  -10.7514    0.0478 C.3       1 <0>        -0.6659
     30 N4         -9.2630   -5.3616    0.0835 N.pl3     1 <0>        -0.7142
     31 C20        -9.0749   -3.9833   -0.3760 C.3       1 <0>         0.1628
     32 C21       -10.4392   -3.3423   -0.6379 C.3       1 <0>        -0.1749
     33 C22       -10.7587   -2.9229   -2.0742 C.3       1 <0>        -0.1689
     34 C23       -10.4626   -1.8596   -1.0147 C.3       1 <0>        -0.1369
     35 C24       -11.6374   -1.0204   -0.5083 C.3       1 <0>        -0.1293
     36 N5         -3.4979   -2.2202    1.2788 N.4       1 <0>        -0.6375
     37 H3          1.0039    1.9031    0.0027 H         1 <0>         0.0635
     38 H4         -0.5459    1.8868   -0.8726 H         1 <0>         0.0579
     39 H5         -0.5289    1.8773    0.9072 H         1 <0>         0.0551
     40 H6          0.5123   -0.3556   -0.8948 H         1 <0>         0.0719
     41 H7          0.5293   -0.3651    0.8851 H         1 <0>         0.0679
     42 H8         -1.9435   -0.1821    0.9097 H         1 <0>         0.0587
     43 H9         -1.9605   -0.1726   -0.8702 H         1 <0>         0.0807
     44 H10        -0.9024   -2.4150   -0.8923 H         1 <0>         0.1207
     45 H11        -0.8854   -2.4246    0.8875 H         1 <0>         0.0958
     46 H12        -2.9413   -4.1516   -2.2699 H         1 <0>         0.0849
     47 H13        -1.2876   -4.0428   -1.6205 H         1 <0>         0.0934
     48 H14        -0.1385   -6.0477   -0.7964 H         1 <0>         0.1277
     49 H15        -0.0592   -8.6237   -1.0013 H         1 <0>         0.1843
     50 H16        -4.1334   -6.4427   -2.3852 H         1 <0>         0.1728
     51 H17        -4.9513   -4.0663   -0.2019 H         1 <0>         0.3986
     52 H18        -6.7415   -4.6064   -0.0879 H         1 <0>         0.1287
     53 H19        -5.1831   -8.3833    1.2307 H         1 <0>         0.1524
     54 H20        -6.1950  -10.2542    2.9263 H         1 <0>         0.0797
     55 H21        -6.7190  -11.3994    1.6684 H         1 <0>         0.0916
     56 H22        -5.5743  -10.0973    1.2654 H         1 <0>         0.0892
     57 H23        -8.8030  -11.5615   -0.1652 H         1 <0>         0.1279
     58 H24       -10.5186  -11.1407    0.0540 H         1 <0>         0.1354
     59 H25        -9.4101   -9.9828   -0.7198 H         1 <0>         0.1290
     60 H26       -10.1579   -5.7241    0.1762 H         1 <0>         0.4154
     61 H27        -8.5469   -3.4141    0.3891 H         1 <0>         0.0641
     62 H28        -8.4909   -3.9836   -1.2963 H         1 <0>         0.0653
     63 H29       -11.2607   -3.7198   -0.0289 H         1 <0>         0.1152
     64 H30        -9.9969   -3.1037   -2.8325 H         1 <0>         0.0966
     65 H31       -11.7906   -3.0246   -2.4104 H         1 <0>         0.1003
     66 H32        -9.5059   -1.3408   -1.0760 H         1 <0>         0.1035
     67 H33       -11.6556   -1.0410    0.5813 H         1 <0>         0.0620
     68 H34       -11.5233    0.0082   -0.8504 H         1 <0>         0.0645
     69 H35       -12.5703   -1.4306   -0.8951 H         1 <0>         0.0604
     70 H36        -3.5095   -1.2151    1.3673 H         1 <0>         0.4376
     71 H37        -4.4445   -2.5694    1.2860 H         1 <0>         0.4321
     72 H38        -2.9861   -2.6198    2.0511 H         1 <0>         0.4369
@<TRIPOS>BOND
     1    1    2 1
     2    1   37 1
     3    1   38 1
     4    1   39 1
     5    2    3 1
     6    2   40 1
     7    2   41 1
     8    3    4 1
     9    3   42 1
    10    3   43 1
    11    4    5 1
    12    4   44 1
    13    4   45 1
    14    5    6 1
    15    5    7 1
    16    5   36 1
    17    7    8 1
    18    7    9 1
    19    7   15 1
    20    9   10 1
    21    9   46 1
    22    9   47 1
    23   10   14 2
    24   10   11 1
    25   11   12 2
    26   11   48 1
    27   12   13 1
    28   12   49 1
    29   13   14 1
    30   14   50 1
    31   15   16 am
    32   15   51 1
    33   16   17 2
    34   16   18 1
    35   18   23 ar
    36   18   19 ar
    37   19   20 ar
    38   19   52 1
    39   20   21 ar
    40   20   30 1
    41   21   22 ar
    42   22   23 ar
    43   22   24 1
    44   23   53 1
    45   24   25 1
    46   24   26 1
    47   25   54 1
    48   25   55 1
    49   25   56 1
    50   26   27 2
    51   26   28 2
    52   26   29 1
    53   29   57 1
    54   29   58 1
    55   29   59 1
    56   30   31 1
    57   30   60 1
    58   31   32 1
    59   31   61 1
    60   31   62 1
    61   32   34 1
    62   32   33 1
    63   32   63 1
    64   33   34 1
    65   33   64 1
    66   33   65 1
    67   34   35 1
    68   34   66 1
    69   35   67 1
    70   35   68 1
    71   35   69 1
    72   36   70 1
    73   36   71 1
    74   36   72 1
@<TRIPOS>MOLECULE
CHEMBL440957__2
   72    74     0     0     0
SMALL
USER_CHARGES

@<TRIPOS>ATOM
      1 C1         -0.0187    1.5258    0.0104 C.3       1 <0>        -0.1596
      2 C2          0.0021   -0.0041    0.0020 C.3       1 <0>        -0.1261
      3 C3         -1.4333   -0.5336    0.0129 C.3       1 <0>        -0.1335
      4 C4         -1.4126   -2.0635    0.0045 C.3       1 <0>        -0.1481
      5 C5         -2.8479   -2.5931    0.0153 C.3       1 <0>         0.0203
      6 H1         -3.4008   -2.1613   -0.8189 H         1 <0>         0.1515
      7 C6         -2.8303   -4.1171   -0.1188 C.3       1 <0>         0.1316
      8 H2         -2.2038   -4.5435    0.6646 H         1 <0>         0.1204
      9 C7         -2.2672   -4.5021   -1.4883 C.3       1 <0>        -0.0724
     10 C8         -2.1349   -6.0008   -1.5738 C.2       1 <0>        -0.1144
     11 C9         -0.9687   -6.6260   -1.1742 C.2       1 <0>        -0.1514
     12 C10        -0.8824   -7.9758   -1.2641 C.2       1 <0>        -0.1609
     13 S1         -2.4823   -8.4046   -1.9302 S.3       1 <0>         0.0647
     14 C11        -3.1599   -6.7564   -2.0384 C.2       1 <0>        -0.1752
     15 N1         -4.1947   -4.6346    0.0113 N.am      1 <0>        -0.7480
     16 C12        -4.3986   -5.9003    0.4270 C.2       1 <0>         0.5677
     17 O1         -3.4507   -6.6122    0.6941 O.2       1 <0>        -0.4784
     18 C13        -5.7786   -6.4237    0.5586 C.ar      1 <0>        -0.0244
     19 C14        -6.8810   -5.6224    0.2507 C.ar      1 <0>        -0.2556
     20 C15        -8.1589   -6.1501    0.3865 C.ar      1 <0>         0.4502
     21 N2         -8.3382   -7.3947    0.8016 N.ar      1 <0>        -0.5422
     22 C16        -7.3192   -8.1845    1.1027 C.ar      1 <0>         0.4334
     23 C17        -6.0101   -7.7325    0.9879 C.ar      1 <0>        -0.2041
     24 N3         -7.5617   -9.4835    1.5345 N.pl3     1 <0>        -0.9235
     25 C18        -6.4408  -10.3650    1.8701 C.3       1 <0>         0.0745
     26 S2         -9.1175  -10.0344    1.6695 S.o2      1 <0>         2.5964
     27 O2         -9.0560  -11.0567    2.6545 O.2       1 <0>        -0.9430
     28 O3         -9.8982   -8.8667    1.8851 O.2       1 <0>        -0.9064
     29 C19        -9.5005  -10.7514    0.0478 C.3       1 <0>        -0.6660
     30 N4         -9.2630   -5.3616    0.0835 N.pl3     1 <0>        -0.7142
     31 C20        -9.0749   -3.9833   -0.3760 C.3       1 <0>         0.1628
     32 C21       -10.4392   -3.3423   -0.6379 C.3       1 <0>        -0.1743
     33 C22       -10.8352   -2.1450    0.2284 C.3       1 <0>        -0.1689
     34 C23       -10.4551   -1.9353   -1.2387 C.3       1 <0>        -0.1364
     35 C24       -11.5806   -1.5983   -2.2188 C.3       1 <0>        -0.1296
     36 N5         -3.4979   -2.2202    1.2788 N.4       1 <0>        -0.6375
     37 H3          1.0039    1.9031    0.0027 H         1 <0>         0.0635
     38 H4         -0.5459    1.8868   -0.8726 H         1 <0>         0.0579
     39 H5         -0.5289    1.8773    0.9072 H         1 <0>         0.0551
     40 H6          0.5123   -0.3556   -0.8948 H         1 <0>         0.0720
     41 H7          0.5293   -0.3651    0.8851 H         1 <0>         0.0679
     42 H8         -1.9435   -0.1821    0.9097 H         1 <0>         0.0586
     43 H9         -1.9605   -0.1726   -0.8702 H         1 <0>         0.0807
     44 H10        -0.9024   -2.4150   -0.8923 H         1 <0>         0.1208
     45 H11        -0.8854   -2.4246    0.8875 H         1 <0>         0.0958
     46 H12        -2.9413   -4.1516   -2.2699 H         1 <0>         0.0850
     47 H13        -1.2876   -4.0428   -1.6205 H         1 <0>         0.0934
     48 H14        -0.1385   -6.0477   -0.7964 H         1 <0>         0.1276
     49 H15        -0.0592   -8.6237   -1.0013 H         1 <0>         0.1842
     50 H16        -4.1334   -6.4427   -2.3852 H         1 <0>         0.1729
     51 H17        -4.9513   -4.0663   -0.2019 H         1 <0>         0.3986
     52 H18        -6.7415   -4.6064   -0.0879 H         1 <0>         0.1287
     53 H19        -5.1831   -8.3833    1.2307 H         1 <0>         0.1524
     54 H20        -6.1950  -10.2542    2.9263 H         1 <0>         0.0797
     55 H21        -6.7190  -11.3994    1.6684 H         1 <0>         0.0916
     56 H22        -5.5743  -10.0973    1.2654 H         1 <0>         0.0892
     57 H23        -8.8030  -11.5615   -0.1652 H         1 <0>         0.1279
     58 H24       -10.5186  -11.1407    0.0540 H         1 <0>         0.1354
     59 H25        -9.4101   -9.9828   -0.7198 H         1 <0>         0.1290
     60 H26       -10.1579   -5.7241    0.1762 H         1 <0>         0.4154
     61 H27        -8.5469   -3.4141    0.3891 H         1 <0>         0.0618
     62 H28        -8.4909   -3.9836   -1.2963 H         1 <0>         0.0678
     63 H29       -11.2304   -4.0280   -0.9412 H         1 <0>         0.1150
     64 H30       -11.8871   -2.0429    0.4954 H         1 <0>         0.1003
     65 H31       -10.1238   -1.8139    0.9850 H         1 <0>         0.0947
     66 H32        -9.4936   -1.4663   -1.4474 H         1 <0>         0.1040
     67 H33       -12.5429   -1.7090   -1.7191 H         1 <0>         0.0602
     68 H34       -11.4664   -0.5707   -2.5639 H         1 <0>         0.0647
     69 H35       -11.5342   -2.2753   -3.0719 H         1 <0>         0.0627
     70 H36        -3.5095   -1.2151    1.3673 H         1 <0>         0.4376
     71 H37        -4.4445   -2.5694    1.2860 H         1 <0>         0.4320
     72 H38        -2.9861   -2.6198    2.0511 H         1 <0>         0.4369
@<TRIPOS>BOND
     1    1    2 1
     2    1   37 1
     3    1   38 1
     4    1   39 1
     5    2    3 1
     6    2   40 1
     7    2   41 1
     8    3    4 1
     9    3   42 1
    10    3   43 1
    11    4    5 1
    12    4   44 1
    13    4   45 1
    14    5    6 1
    15    5    7 1
    16    5   36 1
    17    7    8 1
    18    7    9 1
    19    7   15 1
    20    9   10 1
    21    9   46 1
    22    9   47 1
    23   10   14 2
    24   10   11 1
    25   11   12 2
    26   11   48 1
    27   12   13 1
    28   12   49 1
    29   13   14 1
    30   14   50 1
    31   15   16 am
    32   15   51 1
    33   16   17 2
    34   16   18 1
    35   18   23 ar
    36   18   19 ar
    37   19   20 ar
    38   19   52 1
    39   20   21 ar
    40   20   30 1
    41   21   22 ar
    42   22   23 ar
    43   22   24 1
    44   23   53 1
    45   24   25 1
    46   24   26 1
    47   25   54 1
    48   25   55 1
    49   25   56 1
    50   26   27 2
    51   26   28 2
    52   26   29 1
    53   29   57 1
    54   29   58 1
    55   29   59 1
    56   30   31 1
    57   30   60 1
    58   31   32 1
    59   31   61 1
    60   31   62 1
    61   32   34 1
    62   32   33 1
    63   32   63 1
    64   33   34 1
    65   33   64 1
    66   33   65 1
    67   34   35 1
    68   34   66 1
    69   35   67 1
    70   35   68 1
    71   35   69 1
    72   36   70 1
    73   36   71 1
    74   36   72 1
@<TRIPOS>MOLECULE
CHEMBL440957__3
   72    74     0     0     0
SMALL
USER_CHARGES

@<TRIPOS>ATOM
      1 C1         -0.0187    1.5258    0.0104 C.3       1 <0>        -0.1596
      2 C2          0.0021   -0.0041    0.0020 C.3       1 <0>        -0.1261
      3 C3         -1.4333   -0.5336    0.0129 C.3       1 <0>        -0.1335
      4 C4         -1.4126   -2.0635    0.0045 C.3       1 <0>        -0.1481
      5 C5         -2.8479   -2.5931    0.0153 C.3       1 <0>         0.0202
      6 H1         -3.4008   -2.1613   -0.8189 H         1 <0>         0.1516
      7 C6         -2.8303   -4.1171   -0.1188 C.3       1 <0>         0.1316
      8 H2         -2.2038   -4.5435    0.6646 H         1 <0>         0.1204
      9 C7         -2.2672   -4.5021   -1.4883 C.3       1 <0>        -0.0723
     10 C8         -2.1349   -6.0008   -1.5738 C.2       1 <0>        -0.1144
     11 C9         -0.9687   -6.6260   -1.1742 C.2       1 <0>        -0.1514
     12 C10        -0.8824   -7.9758   -1.2641 C.2       1 <0>        -0.1609
     13 S1         -2.4823   -8.4046   -1.9302 S.3       1 <0>         0.0648
     14 C11        -3.1599   -6.7564   -2.0384 C.2       1 <0>        -0.1753
     15 N1         -4.1947   -4.6346    0.0113 N.am      1 <0>        -0.7480
     16 C12        -4.3986   -5.9003    0.4270 C.2       1 <0>         0.5678
     17 O1         -3.4507   -6.6122    0.6941 O.2       1 <0>        -0.4783
     18 C13        -5.7786   -6.4237    0.5586 C.ar      1 <0>        -0.0244
     19 C14        -6.8810   -5.6224    0.2507 C.ar      1 <0>        -0.2557
     20 C15        -8.1589   -6.1501    0.3865 C.ar      1 <0>         0.4504
     21 N2         -8.3382   -7.3947    0.8016 N.ar      1 <0>        -0.5421
     22 C16        -7.3192   -8.1845    1.1027 C.ar      1 <0>         0.4334
     23 C17        -6.0101   -7.7325    0.9879 C.ar      1 <0>        -0.2041
     24 N3         -7.5617   -9.4835    1.5345 N.pl3     1 <0>        -0.9235
     25 C18        -6.4408  -10.3650    1.8701 C.3       1 <0>         0.0745
     26 S2         -9.1175  -10.0344    1.6695 S.o2      1 <0>         2.5964
     27 O2         -9.0560  -11.0567    2.6545 O.2       1 <0>        -0.9430
     28 O3         -9.8982   -8.8667    1.8851 O.2       1 <0>        -0.9064
     29 C19        -9.5005  -10.7514    0.0478 C.3       1 <0>        -0.6660
     30 N4         -9.2630   -5.3616    0.0835 N.pl3     1 <0>        -0.7145
     31 C20        -9.0749   -3.9833   -0.3760 C.3       1 <0>         0.1635
     32 C21       -10.4392   -3.3423   -0.6379 C.3       1 <0>        -0.1733
     33 C22       -10.8352   -2.1450    0.2284 C.3       1 <0>        -0.1680
     34 C23       -10.4551   -1.9353   -1.2387 C.3       1 <0>        -0.1425
     35 C24        -9.1054   -1.2770   -1.5316 C.3       1 <0>        -0.1249
     36 N5         -3.4979   -2.2202    1.2788 N.4       1 <0>        -0.6376
     37 H3          1.0039    1.9031    0.0027 H         1 <0>         0.0635
     38 H4         -0.5459    1.8868   -0.8726 H         1 <0>         0.0579
     39 H5         -0.5289    1.8773    0.9072 H         1 <0>         0.0550
     40 H6          0.5123   -0.3556   -0.8948 H         1 <0>         0.0720
     41 H7          0.5293   -0.3651    0.8851 H         1 <0>         0.0679
     42 H8         -1.9435   -0.1821    0.9097 H         1 <0>         0.0586
     43 H9         -1.9605   -0.1726   -0.8702 H         1 <0>         0.0807
     44 H10        -0.9024   -2.4150   -0.8923 H         1 <0>         0.1208
     45 H11        -0.8854   -2.4246    0.8875 H         1 <0>         0.0958
     46 H12        -2.9413   -4.1516   -2.2699 H         1 <0>         0.0850
     47 H13        -1.2876   -4.0428   -1.6205 H         1 <0>         0.0934
     48 H14        -0.1385   -6.0477   -0.7964 H         1 <0>         0.1276
     49 H15        -0.0592   -8.6237   -1.0013 H         1 <0>         0.1842
     50 H16        -4.1334   -6.4427   -2.3852 H         1 <0>         0.1729
     51 H17        -4.9513   -4.0663   -0.2019 H         1 <0>         0.3985
     52 H18        -6.7415   -4.6064   -0.0879 H         1 <0>         0.1286
     53 H19        -5.1831   -8.3833    1.2307 H         1 <0>         0.1524
     54 H20        -6.1950  -10.2542    2.9263 H         1 <0>         0.0797
     55 H21        -6.7190  -11.3994    1.6684 H         1 <0>         0.0916
     56 H22        -5.5743  -10.0973    1.2654 H         1 <0>         0.0892
     57 H23        -8.8030  -11.5615   -0.1652 H         1 <0>         0.1279
     58 H24       -10.5186  -11.1407    0.0540 H         1 <0>         0.1354
     59 H25        -9.4101   -9.9828   -0.7198 H         1 <0>         0.1290
     60 H26       -10.1579   -5.7241    0.1762 H         1 <0>         0.4152
     61 H27        -8.5469   -3.4141    0.3891 H         1 <0>         0.0619
     62 H28        -8.4909   -3.9836   -1.2963 H         1 <0>         0.0683
     63 H29       -11.2304   -4.0280   -0.9412 H         1 <0>         0.1149
     64 H30       -11.8871   -2.0429    0.4954 H         1 <0>         0.1000
     65 H31       -10.1238   -1.8139    0.9850 H         1 <0>         0.0956
     66 H32       -11.2569   -1.6952   -1.9370 H         1 <0>         0.1112
     67 H33        -8.5501   -1.8878   -2.2433 H         1 <0>         0.0603
     68 H34        -9.2688   -0.2854   -1.9537 H         1 <0>         0.0659
     69 H35        -8.5358   -1.1887   -0.6065 H         1 <0>         0.0521
     70 H36        -3.5095   -1.2151    1.3673 H         1 <0>         0.4376
     71 H37        -4.4445   -2.5694    1.2860 H         1 <0>         0.4319
     72 H38        -2.9861   -2.6198    2.0511 H         1 <0>         0.4369
@<TRIPOS>BOND
     1    1    2 1
     2    1   37 1
     3    1   38 1
     4    1   39 1
     5    2    3 1
     6    2   40 1
     7    2   41 1
     8    3    4 1
     9    3   42 1
    10    3   43 1
    11    4    5 1
    12    4   44 1
    13    4   45 1
    14    5    6 1
    15    5    7 1
    16    5   36 1
    17    7    8 1
    18    7    9 1
    19    7   15 1
    20    9   10 1
    21    9   46 1
    22    9   47 1
    23   10   14 2
    24   10   11 1
    25   11   12 2
    26   11   48 1
    27   12   13 1
    28   12   49 1
    29   13   14 1
    30   14   50 1
    31   15   16 am
    32   15   51 1
    33   16   17 2
    34   16   18 1
    35   18   23 ar
    36   18   19 ar
    37   19   20 ar
    38   19   52 1
    39   20   21 ar
    40   20   30 1
    41   21   22 ar
    42   22   23 ar
    43   22   24 1
    44   23   53 1
    45   24   25 1
    46   24   26 1
    47   25   54 1
    48   25   55 1
    49   25   56 1
    50   26   27 2
    51   26   28 2
    52   26   29 1
    53   29   57 1
    54   29   58 1
    55   29   59 1
    56   30   31 1
    57   30   60 1
    58   31   32 1
    59   31   61 1
    60   31   62 1
    61   32   34 1
    62   32   33 1
    63   32   63 1
    64   33   34 1
    65   33   64 1
    66   33   65 1
    67   34   35 1
    68   34   66 1
    69   35   67 1
    70   35   68 1
    71   35   69 1
    72   36   70 1
    73   36   71 1
    74   36   72 1
@<TRIPOS>MOLECULE
CHEMBL564010
   85    86     0     0     0
SMALL
USER_CHARGES

@<TRIPOS>ATOM
      1 C1         -0.0187    1.5258    0.0104 C.3       1 <0>        -0.1489
      2 C2          0.0021   -0.0041    0.0020 C.3       1 <0>        -0.0861
      3 H1          0.5123   -0.3556   -0.8948 H         1 <0>         0.0698
      4 C3         -1.4332   -0.5336    0.0129 C.3       1 <0>        -0.1144
      5 C4         -2.1257   -0.1574   -1.2985 C.3       1 <0>        -0.1216
      6 C5         -2.7679   -1.4034   -1.9118 C.3       1 <0>        -0.1237
      7 C6         -2.2682   -1.5808   -3.3471 C.3       1 <0>        -0.1208
      8 C7         -1.7872   -3.0196   -3.5455 C.3       1 <0>        -0.1210
      9 C8         -0.6909   -3.0483   -4.6125 C.3       1 <0>        -0.1192
     10 C9          0.2762   -4.1969   -4.3192 C.3       1 <0>        -0.1209
     11 C10         1.7075   -3.6585   -4.2695 C.3       1 <0>        -0.1449
     12 C11         2.1772   -3.6117   -2.8384 C.2       1 <0>         0.5171
     13 O1          1.4060   -3.8188   -1.9255 O.2       1 <0>        -0.5184
     14 N1          3.4951   -3.3303   -2.5918 N.am      1 <0>        -0.6175
     15 C12         3.8591   -3.3072   -1.1532 C.3       1 <0>         0.1212
     16 H2          3.3226   -4.0967   -0.6268 H         1 <0>         0.1065
     17 C13         3.4725   -1.9660   -0.5849 C.2       1 <0>         0.5088
     18 O2          3.9516   -0.9458   -1.0326 O.2       1 <0>        -0.5253
     19 N2          2.5751   -1.9180    0.4403 N.am      1 <0>        -0.7241
     20 C14         2.2428   -0.5710    0.9504 C.3       1 <0>         0.1106
     21 H3          2.4999    0.1773    0.2008 H         1 <0>         0.1139
     22 C15         0.7420   -0.5109    1.2415 C.3       1 <0>        -0.1242
     23 C16         3.0287   -0.3010    2.2351 C.3       1 <0>         0.0760
     24 H4          2.7665   -1.0473    2.9851 H         1 <0>         0.1256
     25 C17         4.5282   -0.3780    1.9415 C.3       1 <0>        -0.0445
     26 N3          5.2806   -0.2378    3.1954 N.4       1 <0>        -0.5034
     27 C18         6.7204   -0.3117    2.9134 C.3       1 <0>         0.0470
     28 C19         7.4922   -0.1678    4.1997 C.ar      1 <0>        -0.1633
     29 C20         7.8727    1.0859    4.6411 C.ar      1 <0>        -0.0973
     30 C21         8.5805    1.2179    5.8208 C.ar      1 <0>        -0.1096
     31 C22         8.9078    0.0961    6.5598 C.ar      1 <0>        -0.0793
     32 C23         8.5267   -1.1572    6.1191 C.ar      1 <0>        -0.0655
     33 C24         7.8149   -1.2888    4.9411 C.ar      1 <0>        -0.0936
     34 C25         8.8838   -2.3799    6.9243 C.3       1 <0>        -0.0615
     35 C26        10.4052   -2.4799    7.0522 C.3       1 <0>        -0.1498
     36 C27         8.2608   -2.2729    8.3176 C.3       1 <0>        -0.1488
     37 O3          2.7057    1.0016    2.7261 O.3       1 <0>        -0.5438
     38 C28         5.3666   -3.5201   -1.0007 C.3       1 <0>        -0.1537
     39 C29         4.4647   -3.0738   -3.6597 C.3       1 <0>         0.0863
     40 H5          1.0039    1.9031    0.0027 H         1 <0>         0.0471
     41 H6         -0.5459    1.8868   -0.8726 H         1 <0>         0.0597
     42 H7         -0.5289    1.8773    0.9072 H         1 <0>         0.0582
     43 H8         -1.4194   -1.6184    0.1183 H         1 <0>         0.0655
     44 H9         -1.9763   -0.0942    0.8496 H         1 <0>         0.0608
     45 H10        -2.8955    0.5888   -1.1019 H         1 <0>         0.0599
     46 H11        -1.3917    0.2520   -1.9926 H         1 <0>         0.0642
     47 H12        -2.4974   -2.2793   -1.3220 H         1 <0>         0.0664
     48 H13        -3.8519   -1.2889   -1.9160 H         1 <0>         0.0593
     49 H14        -3.0801   -1.3699   -4.0431 H         1 <0>         0.0587
     50 H15        -1.4431   -0.8930   -3.5321 H         1 <0>         0.0604
     51 H16        -1.3896   -3.4026   -2.6057 H         1 <0>         0.0699
     52 H17        -2.6231   -3.6411   -3.8666 H         1 <0>         0.0593
     53 H18        -1.1426   -3.1952   -5.5936 H         1 <0>         0.0620
     54 H19        -0.1474   -2.1036   -4.6005 H         1 <0>         0.0598
     55 H20         0.0242   -4.6479   -3.3594 H         1 <0>         0.0874
     56 H21         0.1976   -4.9478   -5.1053 H         1 <0>         0.0686
     57 H22         2.3620   -4.3128   -4.8454 H         1 <0>         0.0939
     58 H23         1.7330   -2.6546   -4.6933 H         1 <0>         0.0992
     59 H24         2.1776   -2.7206    0.8128 H         1 <0>         0.4169
     60 H25         0.5606    0.1670    2.0755 H         1 <0>         0.0900
     61 H26         0.3815   -1.5071    1.4979 H         1 <0>         0.0757
     62 H27         4.7600   -1.3400    1.4843 H         1 <0>         0.1341
     63 H28         4.8065    0.4251    1.2590 H         1 <0>         0.1407
     64 H29         5.0661    0.6527    3.6185 H         1 <0>         0.4314
     65 H30         6.9522   -1.2737    2.4563 H         1 <0>         0.1351
     66 H31         6.9987    0.4913    2.2309 H         1 <0>         0.1376
     67 H32         7.6170    1.9622    4.0639 H         1 <0>         0.1305
     68 H33         8.8783    2.1972    6.1653 H         1 <0>         0.1363
     69 H34         9.4615    0.1991    7.4813 H         1 <0>         0.1344
     70 H35         7.5138   -2.2678    4.5986 H         1 <0>         0.1294
     71 H36         8.5021   -3.2694    6.4230 H         1 <0>         0.0811
     72 H37        10.7869   -1.5905    7.5535 H         1 <0>         0.0597
     73 H38        10.6635   -3.3643    7.6346 H         1 <0>         0.0667
     74 H39        10.8490   -2.5562    6.0596 H         1 <0>         0.0578
     75 H40         8.6425   -1.3835    8.8189 H         1 <0>         0.0598
     76 H41         7.1769   -2.2016    8.2265 H         1 <0>         0.0558
     77 H42         8.5191   -3.1573    8.9000 H         1 <0>         0.0667
     78 H43         2.9128    1.7169    2.1093 H         1 <0>         0.3911
     79 H44         5.9003   -2.7252   -1.5217 H         1 <0>         0.0761
     80 H45         5.6308   -3.5027    0.0566 H         1 <0>         0.0670
     81 H46         5.6425   -4.4839   -1.4284 H         1 <0>         0.0813
     82 H47         3.9674   -3.1455   -4.6269 H         1 <0>         0.0855
     83 H48         4.8823   -2.0742   -3.5389 H         1 <0>         0.0686
     84 H49         5.2660   -3.8110   -3.6076 H         1 <0>         0.0670
     85 H50         5.0230   -0.9811    3.8271 H         1 <0>         0.4260
@<TRIPOS>BOND
     1    1    2 1
     2    1   40 1
     3    1   41 1
     4    1   42 1
     5    2    3 1
     6    2   22 1
     7    2    4 1
     8    4    5 1
     9    4   43 1
    10    4   44 1
    11    5    6 1
    12    5   45 1
    13    5   46 1
    14    6    7 1
    15    6   47 1
    16    6   48 1
    17    7    8 1
    18    7   49 1
    19    7   50 1
    20    8    9 1
    21    8   51 1
    22    8   52 1
    23    9   10 1
    24    9   53 1
    25    9   54 1
    26   10   11 1
    27   10   55 1
    28   10   56 1
    29   11   12 1
    30   11   57 1
    31   11   58 1
    32   12   13 2
    33   12   14 am
    34   14   15 1
    35   14   39 1
    36   15   16 1
    37   15   17 1
    38   15   38 1
    39   17   18 2
    40   17   19 am
    41   19   20 1
    42   19   59 1
    43   20   21 1
    44   20   22 1
    45   20   23 1
    46   22   60 1
    47   22   61 1
    48   23   24 1
    49   23   25 1
    50   23   37 1
    51   25   26 1
    52   25   62 1
    53   25   63 1
    54   26   27 1
    55   26   64 1
    56   26   85 1
    57   27   28 1
    58   27   65 1
    59   27   66 1
    60   28   33 ar
    61   28   29 ar
    62   29   30 ar
    63   29   67 1
    64   30   31 ar
    65   30   68 1
    66   31   32 ar
    67   31   69 1
    68   32   33 ar
    69   32   34 1
    70   33   70 1
    71   34   35 1
    72   34   36 1
    73   34   71 1
    74   35   72 1
    75   35   73 1
    76   35   74 1
    77   36   75 1
    78   36   76 1
    79   36   77 1
    80   37   78 1
    81   38   79 1
    82   38   80 1
    83   38   81 1
    84   39   82 1
    85   39   83 1
    86   39   84 1
@<TRIPOS>MOLECULE
CHEMBL375678
   86    86     0     0     0
SMALL
USER_CHARGES

@<TRIPOS>ATOM
      1 C1         -3.8192    2.0636   -1.4274 C.3       1 <0>        -0.1511
      2 C2         -3.3314    0.6475   -1.1149 C.3       1 <0>        -0.1362
      3 C3         -4.4502   -0.3538   -1.4091 C.3       1 <0>         0.1163
      4 N1         -3.9832   -1.7097   -1.1099 N.am      1 <0>        -0.7276
      5 C4         -4.8052   -2.7617   -1.2946 C.2       1 <0>         0.5572
      6 O1         -5.9340   -2.5854   -1.7095 O.2       1 <0>        -0.5271
      7 C5         -4.3338   -4.1302   -0.9926 C.ar      1 <0>        -0.1405
      8 C6         -3.0386   -4.3340   -0.5103 C.ar      1 <0>        -0.0619
      9 C7         -2.5969   -5.6112   -0.2279 C.ar      1 <0>        -0.1301
     10 C8         -3.4308   -6.6951   -0.4198 C.ar      1 <0>        -0.0621
     11 C9         -4.7278   -6.5055   -0.9019 C.ar      1 <0>        -0.1406
     12 C10        -5.1820   -5.2186   -1.1830 C.ar      1 <0>        -0.0002
     13 C11        -5.6190   -7.6672   -1.1077 C.2       1 <0>         0.5611
     14 O2         -6.7476   -7.5007   -1.5273 O.2       1 <0>        -0.5197
     15 N2         -5.1800   -8.9109   -0.8300 N.am      1 <0>        -0.7230
     16 C12        -6.0962  -10.0499   -0.9274 C.3       1 <0>         0.1151
     17 H1         -7.0970   -9.7377   -0.6288 H         1 <0>         0.1026
     18 C13        -6.1292  -10.5558   -2.3709 C.3       1 <0>        -0.1207
     19 C14        -7.2018  -11.6383   -2.5075 C.3       1 <0>        -0.0920
     20 C15        -8.5839  -11.0162   -2.2984 C.3       1 <0>        -0.1483
     21 C16        -7.1271  -12.2568   -3.9049 C.3       1 <0>        -0.1458
     22 C17        -5.6153  -11.1716   -0.0047 C.3       1 <0>         0.0925
     23 H2         -6.2970  -12.0190   -0.0771 H         1 <0>         0.1348
     24 C18        -5.5823  -10.6656    1.4389 C.3       1 <0>        -0.1317
     25 C19        -5.2274  -11.8214    2.3764 C.3       1 <0>        -0.1076
     26 H3         -4.3116  -12.3012    2.0311 H         1 <0>         0.1062
     27 C20        -5.0180  -11.2830    3.7932 C.3       1 <0>        -0.1466
     28 C21        -6.3500  -12.8268    2.3819 C.2       1 <0>         0.5234
     29 O3         -7.3368  -12.6374    1.7028 O.2       1 <0>        -0.5313
     30 N3         -6.2573  -13.9362    3.1414 N.am      1 <0>        -0.7096
     31 C22        -7.3487  -14.9136    3.1467 C.3       1 <0>         0.1317
     32 H4         -8.3021  -14.3941    3.0506 H         1 <0>         0.1100
     33 C23        -7.1738  -15.8797    1.9734 C.3       1 <0>        -0.0981
     34 C24        -7.3349  -15.1174    0.6566 C.3       1 <0>        -0.1381
     35 C25        -5.7793  -16.5066    2.0324 C.3       1 <0>        -0.1481
     36 C26        -7.3255  -15.6855    4.4408 C.2       1 <0>         0.5158
     37 O4         -6.3257  -15.6882    5.1275 O.2       1 <0>        -0.5336
     38 N4         -8.4157  -16.3728    4.8352 N.am      1 <0>        -0.7220
     39 C27        -8.3584  -17.2116    6.0349 C.3       1 <0>         0.1351
     40 C28        -9.7652  -17.3670    6.6162 C.3       1 <0>        -0.1622
     41 C29        -7.8032  -18.5893    5.6680 C.3       1 <0>        -0.1644
     42 O5         -4.3033  -11.5808   -0.3961 O.3       1 <0>        -0.5509
     43 H5         -3.0222    2.7770   -1.2177 H         1 <0>         0.0615
     44 H6         -4.0973    2.1283   -2.4793 H         1 <0>         0.0590
     45 H7         -4.6857    2.2945   -0.8077 H         1 <0>         0.0589
     46 H8         -2.4650    0.4167   -1.7345 H         1 <0>         0.0694
     47 H9         -3.0534    0.5829   -0.0629 H         1 <0>         0.0693
     48 H10        -5.3167   -0.1229   -0.7894 H         1 <0>         0.0709
     49 H11        -4.7283   -0.2891   -2.4611 H         1 <0>         0.0709
     50 H12        -3.0823   -1.8504   -0.7788 H         1 <0>         0.3997
     51 H13        -2.3813   -3.4907   -0.3584 H         1 <0>         0.1315
     52 H14        -1.5946   -5.7633    0.1445 H         1 <0>         0.1386
     53 H15        -3.0791   -7.6916   -0.1969 H         1 <0>         0.1300
     54 H16        -6.1857   -5.0661   -1.5515 H         1 <0>         0.1511
     55 H17        -4.2575   -9.0518   -0.5656 H         1 <0>         0.3922
     56 H18        -6.3612   -9.7279   -3.0409 H         1 <0>         0.0684
     57 H19        -5.1566  -10.9730   -2.6320 H         1 <0>         0.0710
     58 H20        -7.0346  -12.4121   -1.7583 H         1 <0>         0.0729
     59 H21        -9.3456  -11.7931   -2.3634 H         1 <0>         0.0528
     60 H22        -8.6262  -10.5471   -1.3154 H         1 <0>         0.0561
     61 H23        -8.7643  -10.2651   -3.0675 H         1 <0>         0.0543
     62 H24        -6.1425  -12.7001   -4.0539 H         1 <0>         0.0534
     63 H25        -7.8912  -13.0280   -4.0023 H         1 <0>         0.0544
     64 H26        -7.2943  -11.4830   -4.6542 H         1 <0>         0.0530
     65 H27        -4.8330   -9.8795    1.5313 H         1 <0>         0.0722
     66 H28        -6.5611  -10.2678    1.7069 H         1 <0>         0.0845
     67 H29        -4.6795  -12.0905    4.4424 H         1 <0>         0.0633
     68 H30        -4.2673  -10.4930    3.7744 H         1 <0>         0.0691
     69 H31        -5.9581  -10.8820    4.1721 H         1 <0>         0.0606
     70 H32        -5.4681  -14.0876    3.6846 H         1 <0>         0.4100
     71 H33        -7.9278  -16.6646    2.0335 H         1 <0>         0.0805
     72 H34        -6.5064  -14.4192    0.5373 H         1 <0>         0.0576
     73 H35        -7.3376  -15.8234   -0.1739 H         1 <0>         0.0521
     74 H36        -8.2754  -14.5666    0.6684 H         1 <0>         0.0663
     75 H37        -5.6645  -17.0497    2.9705 H         1 <0>         0.0547
     76 H38        -5.6547  -17.1949    1.1965 H         1 <0>         0.0591
     77 H39        -5.0253  -15.7218    1.9724 H         1 <0>         0.0591
     78 H40        -9.2382  -16.3121    4.3246 H         1 <0>         0.4024
     79 H41        -7.7092  -16.7435    6.7748 H         1 <0>         0.0900
     80 H42       -10.4144  -17.8350    5.8762 H         1 <0>         0.0624
     81 H43        -9.7226  -17.9911    7.5088 H         1 <0>         0.0748
     82 H44       -10.1607  -16.3855    6.8776 H         1 <0>         0.0624
     83 H45        -8.4525  -19.0573    4.9280 H         1 <0>         0.0582
     84 H46        -6.8010  -18.4786    5.2539 H         1 <0>         0.0593
     85 H47        -7.7606  -19.2134    6.5606 H         1 <0>         0.0679
     86 H48        -3.6430  -10.8755   -0.3560 H         1 <0>         0.3633
@<TRIPOS>BOND
     1    1    2 1
     2    1   43 1
     3    1   44 1
     4    1   45 1
     5    2    3 1
     6    2   46 1
     7    2   47 1
     8    3    4 1
     9    3   48 1
    10    3   49 1
    11    4    5 am
    12    4   50 1
    13    5    6 2
    14    5    7 1
    15    7   12 ar
    16    7    8 ar
    17    8    9 ar
    18    8   51 1
    19    9   10 ar
    20    9   52 1
    21   10   11 ar
    22   10   53 1
    23   11   12 ar
    24   11   13 1
    25   12   54 1
    26   13   14 2
    27   13   15 am
    28   15   16 1
    29   15   55 1
    30   16   17 1
    31   16   18 1
    32   16   22 1
    33   18   19 1
    34   18   56 1
    35   18   57 1
    36   19   20 1
    37   19   21 1
    38   19   58 1
    39   20   59 1
    40   20   60 1
    41   20   61 1
    42   21   62 1
    43   21   63 1
    44   21   64 1
    45   22   23 1
    46   22   24 1
    47   22   42 1
    48   24   25 1
    49   24   65 1
    50   24   66 1
    51   25   26 1
    52   25   27 1
    53   25   28 1
    54   27   67 1
    55   27   68 1
    56   27   69 1
    57   28   29 2
    58   28   30 am
    59   30   31 1
    60   30   70 1
    61   31   32 1
    62   31   33 1
    63   31   36 1
    64   33   34 1
    65   33   35 1
    66   33   71 1
    67   34   72 1
    68   34   73 1
    69   34   74 1
    70   35   75 1
    71   35   76 1
    72   35   77 1
    73   36   37 2
    74   36   38 am
    75   38   39 1
    76   38   78 1
    77   39   40 1
    78   39   41 1
    79   39   79 1
    80   40   80 1
    81   40   81 1
    82   40   82 1
    83   41   83 1
    84   41   84 1
    85   41   85 1
    86   42   86 1
@<TRIPOS>MOLECULE
CHEMBL493637
   72    75     0     0     0
SMALL
USER_CHARGES

@<TRIPOS>ATOM
      1 C1         -0.0187    1.5258    0.0104 C.3       1 <0>        -0.1688
      2 C2          0.0021   -0.0041    0.0020 C.3       1 <0>         0.1192
      3 N1          0.7106   -0.4894    1.1889 N.pl3     1 <0>        -0.7435
      4 C3          0.8590   -1.8622    1.4012 C.ar      1 <0>         0.2401
      5 C4          0.3400   -2.7651    0.4846 C.ar      1 <0>        -0.1889
      6 C5          0.4890   -4.1355    0.6971 C.ar      1 <0>        -0.0692
      7 C6          1.1598   -4.5934    1.8314 C.ar      1 <0>        -0.1473
      8 C7          1.6762   -3.6852    2.7437 C.ar      1 <0>         0.2222
      9 C8          1.5306   -2.3213    2.5263 C.ar      1 <0>        -0.1964
     10 N2          2.3477   -4.1429    3.8800 N.pl3     1 <0>        -0.9357
     11 C9          2.4215   -3.3234    5.0988 C.3       1 <0>         0.0990
     12 C10         3.8852   -3.0942    5.4705 C.3       1 <0>        -0.1584
     13 C11         4.5623   -4.4130    5.8360 C.3       1 <0>        -0.1164
     14 C12         4.7379   -5.2716    4.5780 C.3       1 <0>        -0.6061
     15 S1          3.0834   -5.6358    3.8993 S.o2      1 <0>         2.5859
     16 O1          2.3265   -6.4085    4.8208 O.2       1 <0>        -0.9355
     17 O2          3.1805   -6.0172    2.5339 O.2       1 <0>        -0.9449
     18 C13        -0.0633   -5.1009   -0.2774 C.2       1 <0>         0.5638
     19 O3          0.0673   -6.2949   -0.0909 O.2       1 <0>        -0.5250
     20 N3         -0.7115   -4.6569   -1.3725 N.am      1 <0>        -0.7207
     21 C14        -1.2586   -5.6133   -2.3380 C.3       1 <0>         0.1226
     22 H1         -1.6172   -6.4972   -1.8105 H         1 <0>         0.1145
     23 C15        -2.4195   -4.9656   -3.0956 C.3       1 <0>        -0.0893
     24 C16        -3.5463   -4.6777   -2.1373 C.ar      1 <0>        -0.0950
     25 C17        -4.5220   -5.6305   -1.9113 C.ar      1 <0>        -0.1118
     26 C18        -5.5556   -5.3664   -1.0323 C.ar      1 <0>        -0.1132
     27 C19        -5.6134   -4.1496   -0.3789 C.ar      1 <0>        -0.1125
     28 C20        -4.6372   -3.1971   -0.6042 C.ar      1 <0>        -0.1142
     29 C21        -3.6012   -3.4629   -1.4799 C.ar      1 <0>        -0.1119
     30 C22        -0.1660   -6.0190   -3.3291 C.3       1 <0>         0.0718
     31 H2          0.1926   -5.1351   -3.8566 H         1 <0>         0.0829
     32 C23         0.9948   -6.6667   -2.5715 C.3       1 <0>         0.0038
     33 N4          2.0933   -6.9474   -3.5057 N.4       1 <0>        -0.4765
     34 C24         3.2078   -7.5692   -2.7783 C.3       1 <0>        -0.0816
     35 C25         4.5294   -6.8006   -2.7195 C.3       1 <0>        -0.1538
     36 C26         4.4077   -8.0469   -3.5985 C.3       1 <0>        -0.1541
     37 O4         -0.6997   -6.9519   -4.2709 O.3       1 <0>        -0.5626
     38 H3          1.0039    1.9031    0.0027 H         1 <0>         0.0636
     39 H4         -0.5459    1.8868   -0.8726 H         1 <0>         0.0762
     40 H5         -0.5289    1.8773    0.9072 H         1 <0>         0.0648
     41 H6         -1.0205   -0.3814    0.0098 H         1 <0>         0.0611
     42 H7          0.5123   -0.3556   -0.8948 H         1 <0>         0.0589
     43 H8          1.0768    0.1425    1.8273 H         1 <0>         0.4042
     44 H9         -0.1791   -2.4073   -0.3923 H         1 <0>         0.1234
     45 H10         1.2766   -5.6539    1.9992 H         1 <0>         0.1467
     46 H11         1.9373   -1.6161    3.2361 H         1 <0>         0.1345
     47 H12         1.9372   -2.3633    4.9209 H         1 <0>         0.1026
     48 H13         1.9160   -3.8396    5.9149 H         1 <0>         0.0924
     49 H14         4.4049   -2.6466    4.6233 H         1 <0>         0.0813
     50 H15         3.9374   -2.4158    6.3220 H         1 <0>         0.1021
     51 H16         5.5390   -4.2095    6.2752 H         1 <0>         0.0962
     52 H17         3.9459   -4.9491    6.5576 H         1 <0>         0.0876
     53 H18         5.3284   -4.7271    3.8412 H         1 <0>         0.1377
     54 H19         5.2408   -6.2034    4.8366 H         1 <0>         0.1396
     55 H20        -0.8157   -3.7041   -1.5214 H         1 <0>         0.4067
     56 H21        -2.0820   -4.0341   -3.5501 H         1 <0>         0.0857
     57 H22        -2.7688   -5.6440   -3.8739 H         1 <0>         0.0945
     58 H23        -4.4769   -6.5812   -2.4218 H         1 <0>         0.1224
     59 H24        -6.3183   -6.1105   -0.8563 H         1 <0>         0.1258
     60 H25        -6.4213   -3.9429    0.3073 H         1 <0>         0.1253
     61 H26        -4.6825   -2.2463   -0.0939 H         1 <0>         0.1240
     62 H27        -2.8365   -2.7201   -1.6531 H         1 <0>         0.1153
     63 H28         1.3442   -5.9883   -1.7932 H         1 <0>         0.1447
     64 H29         0.6574   -7.5982   -2.1171 H         1 <0>         0.1484
     65 H30         1.7699   -7.5753   -4.2262 H         1 <0>         0.4329
     66 H31         2.9286   -8.1585   -1.9048 H         1 <0>         0.1790
     67 H32         4.5719   -5.8335   -3.2205 H         1 <0>         0.1189
     68 H33         5.1199   -6.8839   -1.8071 H         1 <0>         0.1340
     69 H34         4.9182   -8.9502   -3.2645 H         1 <0>         0.1337
     70 H35         4.3702   -7.8998   -4.6779 H         1 <0>         0.1200
     71 H36        -1.4408   -6.6082   -4.7882 H         1 <0>         0.4036
     72 H37         2.4056   -6.0851   -3.9264 H         1 <0>         0.4195
@<TRIPOS>BOND
     1    1    2 1
     2    1   38 1
     3    1   39 1
     4    1   40 1
     5    2    3 1
     6    2   41 1
     7    2   42 1
     8    3    4 1
     9    3   43 1
    10    4    9 ar
    11    4    5 ar
    12    5    6 ar
    13    5   44 1
    14    6    7 ar
    15    6   18 1
    16    7    8 ar
    17    7   45 1
    18    8    9 ar
    19    8   10 1
    20    9   46 1
    21   10   15 1
    22   10   11 1
    23   11   12 1
    24   11   47 1
    25   11   48 1
    26   12   13 1
    27   12   49 1
    28   12   50 1
    29   13   14 1
    30   13   51 1
    31   13   52 1
    32   14   15 1
    33   14   53 1
    34   14   54 1
    35   15   16 2
    36   15   17 2
    37   18   19 2
    38   18   20 am
    39   20   21 1
    40   20   55 1
    41   21   22 1
    42   21   23 1
    43   21   30 1
    44   23   24 1
    45   23   56 1
    46   23   57 1
    47   24   29 ar
    48   24   25 ar
    49   25   26 ar
    50   25   58 1
    51   26   27 ar
    52   26   59 1
    53   27   28 ar
    54   27   60 1
    55   28   29 ar
    56   28   61 1
    57   29   62 1
    58   30   31 1
    59   30   32 1
    60   30   37 1
    61   32   33 1
    62   32   63 1
    63   32   64 1
    64   33   34 1
    65   33   65 1
    66   33   72 1
    67   34   36 1
    68   34   35 1
    69   34   66 1
    70   35   36 1
    71   35   67 1
    72   35   68 1
    73   36   69 1
    74   36   70 1
    75   37   71 1
@<TRIPOS>MOLECULE
CHEMBL566638
   63    67     0     0     0
SMALL
USER_CHARGES

@<TRIPOS>ATOM
      1 C1         -0.2664    0.7592   -0.9607 C.3       1 <0>         0.0607
      2 N1         -0.2619   -0.6956   -0.7883 N.am      1 <0>        -0.5526
      3 C2         -1.3530   -1.4305   -0.5015 C.2       1 <0>         0.5437
      4 O1         -2.4830   -1.0200   -0.3440 O.2       1 <0>        -0.3898
      5 C3         -0.8923   -2.8698   -0.4149 C.3       1 <0>         0.2362
      6 N2          0.5531   -2.8085   -0.6865 N.pl3     1 <0>        -0.6666
      7 C4          0.8550   -1.4868   -0.9042 C.cat     1 <0>         0.7330
      8 N3          2.0463   -1.0409   -1.1815 N.pl3     1 <0>        -0.7328
      9 C5         -1.5884   -3.7089   -1.4553 C.ar      1 <0>        -0.1082
     10 C6         -2.9676   -3.8162   -1.4460 C.ar      1 <0>        -0.0848
     11 C7         -3.6129   -4.5846   -2.3978 C.ar      1 <0>        -0.0975
     12 C8         -2.8830   -5.2487   -3.3631 C.ar      1 <0>        -0.0867
     13 C9         -1.4939   -5.1438   -3.3774 C.ar      1 <0>        -0.0261
     14 C10        -0.8492   -4.3643   -2.4188 C.ar      1 <0>        -0.0971
     15 C11        -0.7040   -5.8555   -4.4126 C.ar      1 <0>        -0.1091
     16 C12        -1.3423   -6.6311   -5.3844 C.ar      1 <0>        -0.0613
     17 C13        -0.5607   -7.2750   -6.3280 C.ar      1 <0>        -0.1610
     18 C14         0.8141   -7.1316   -6.2794 C.ar      1 <0>         0.1085
     19 N4          1.3882   -6.3930   -5.3497 N.ar      1 <0>        -0.4795
     20 C15         0.6853   -5.7566   -4.4349 C.ar      1 <0>         0.1075
     21 C16        -1.1458   -3.4217    0.9643 C.ar      1 <0>        -0.1189
     22 C17        -2.3613   -3.1980    1.5840 C.ar      1 <0>        -0.0893
     23 C18        -2.5988   -3.7021    2.8491 C.ar      1 <0>        -0.1642
     24 C19        -1.6176   -4.4338    3.4988 C.ar      1 <0>         0.1296
     25 C20        -0.3944   -4.6592    2.8749 C.ar      1 <0>         0.1163
     26 C21        -0.1646   -4.1552    1.6048 C.ar      1 <0>        -0.1559
     27 O2          0.5717   -5.3767    3.5084 O.3       1 <0>        -0.2870
     28 C22         1.8397   -5.4743    2.8568 C.3       1 <0>         0.0795
     29 C23         1.8517   -6.6864    1.9026 C.3       1 <0>        -0.1484
     30 C24         3.2871   -7.2547    2.0283 C.3       1 <0>        -0.1238
     31 C25         3.5951   -7.0749    3.5356 C.3       1 <0>        -0.1257
     32 C26         2.9483   -5.7213    3.8951 C.3       1 <0>        -0.1233
     33 O3         -1.8495   -4.9300    4.7435 O.3       1 <0>        -0.2973
     34 C27        -3.1276   -4.6589    5.3224 C.3       1 <0>         0.0206
     35 H1          0.7427    1.1009   -1.1908 H         1 <0>         0.0991
     36 H2         -0.9357    1.0261   -1.7786 H         1 <0>         0.1109
     37 H3         -0.6096    1.2330   -0.0410 H         1 <0>         0.1112
     38 H4          2.1885   -0.0916   -1.3209 H         1 <0>         0.4492
     39 H5         -3.5425   -3.2983   -0.6926 H         1 <0>         0.1378
     40 H6         -4.6898   -4.6655   -2.3856 H         1 <0>         0.1418
     41 H7         -3.3879   -5.8488   -4.1057 H         1 <0>         0.1373
     42 H8          0.2272   -4.2766   -2.4276 H         1 <0>         0.1213
     43 H9         -2.4180   -6.7259   -5.3985 H         1 <0>         0.1407
     44 H10        -1.0194   -7.8831   -7.0936 H         1 <0>         0.1449
     45 H11         1.4271   -7.6326   -7.0140 H         1 <0>         0.1635
     46 H12         1.1912   -5.1571   -3.6926 H         1 <0>         0.1474
     47 H13        -3.1269   -2.6279    1.0787 H         1 <0>         0.1426
     48 H14        -3.5489   -3.5254    3.3312 H         1 <0>         0.1494
     49 H15         0.7825   -4.3320    1.1168 H         1 <0>         0.1312
     50 H16         2.0454   -4.5591    2.3016 H         1 <0>         0.0679
     51 H17         1.1186   -7.4283    2.2192 H         1 <0>         0.0852
     52 H18         1.6558   -6.3679    0.8788 H         1 <0>         0.0653
     53 H19         3.3107   -8.3089    1.7523 H         1 <0>         0.0763
     54 H20         3.9849   -6.6793    1.4201 H         1 <0>         0.0694
     55 H21         3.1436   -7.8795    4.1159 H         1 <0>         0.0740
     56 H22         4.6715   -7.0398    3.7034 H         1 <0>         0.0749
     57 H23         3.6923   -4.9264    3.8432 H         1 <0>         0.0784
     58 H24         2.5190   -5.7667    4.8960 H         1 <0>         0.0860
     59 H25        -3.1808   -5.1102    6.3131 H         1 <0>         0.1096
     60 H26        -3.2673   -3.5811    5.4060 H         1 <0>         0.0605
     61 H27        -3.9095   -5.0786    4.6894 H         1 <0>         0.0615
     62 H28         1.1707   -3.5560   -0.7108 H         1 <0>         0.4614
     63 H29         2.7916   -1.6580   -1.2486 H         1 <0>         0.4523
@<TRIPOS>BOND
     1    1    2 1
     2    1   35 1
     3    1   36 1
     4    1   37 1
     5    2    7 1
     6    2    3 am
     7    3    4 2
     8    3    5 1
     9    5    6 1
    10    5    9 1
    11    5   21 1
    12    6    7 1
    13    6   62 1
    14    7    8 2
    15    8   38 1
    16    8   63 1
    17    9   14 ar
    18    9   10 ar
    19   10   11 ar
    20   10   39 1
    21   11   12 ar
    22   11   40 1
    23   12   13 ar
    24   12   41 1
    25   13   14 ar
    26   13   15 1
    27   14   42 1
    28   15   20 ar
    29   15   16 ar
    30   16   17 ar
    31   16   43 1
    32   17   18 ar
    33   17   44 1
    34   18   19 ar
    35   18   45 1
    36   19   20 ar
    37   20   46 1
    38   21   26 ar
    39   21   22 ar
    40   22   23 ar
    41   22   47 1
    42   23   24 ar
    43   23   48 1
    44   24   25 ar
    45   24   33 1
    46   25   26 ar
    47   25   27 1
    48   26   49 1
    49   27   28 1
    50   28   32 1
    51   28   29 1
    52   28   50 1
    53   29   30 1
    54   29   51 1
    55   29   52 1
    56   30   31 1
    57   30   53 1
    58   30   54 1
    59   31   32 1
    60   31   55 1
    61   31   56 1
    62   32   57 1
    63   32   58 1
    64   33   34 1
    65   34   59 1
    66   34   60 1
    67   34   61 1
@<TRIPOS>MOLECULE
CHEMBL566638__1
   63    67     0     0     0
SMALL
USER_CHARGES

@<TRIPOS>ATOM
      1 C1         -2.2770    1.7143    1.6476 C.3       1 <0>         0.0627
      2 N1         -1.5174    0.5229    1.2604 N.am      1 <0>        -0.5525
      3 C2         -2.0684   -0.6528    0.8919 C.2       1 <0>         0.5444
      4 O1         -3.2480   -0.9232    0.8178 O.2       1 <0>        -0.3864
      5 C3         -0.8934   -1.5619    0.5901 C.3       1 <0>         0.2250
      6 N2          0.2832   -0.7162    0.8470 N.pl3     1 <0>        -0.6246
      7 C4         -0.1471    0.4504    1.2167 C.cat     1 <0>         0.7336
      8 N3          0.6805    1.5007    1.5345 N.pl3     1 <0>        -0.7767
      9 C5         -0.9229   -2.0035   -0.8504 C.ar      1 <0>        -0.1074
     10 C6         -2.0970   -2.4853   -1.4011 C.ar      1 <0>        -0.0937
     11 C7         -2.1312   -2.8922   -2.7224 C.ar      1 <0>        -0.0949
     12 C8         -0.9925   -2.8193   -3.4993 C.ar      1 <0>        -0.0859
     13 C9          0.1925   -2.3346   -2.9501 C.ar      1 <0>        -0.0215
     14 C10         0.2200   -1.9213   -1.6195 C.ar      1 <0>        -0.0948
     15 C11         1.4197   -2.2538   -3.7804 C.ar      1 <0>        -0.1117
     16 C12         1.3993   -2.6560   -5.1188 C.ar      1 <0>        -0.0603
     17 C13         2.5703   -2.5611   -5.8507 C.ar      1 <0>        -0.1615
     18 C14         3.7125   -2.0759   -5.2399 C.ar      1 <0>         0.1100
     19 N4          3.7011   -1.7042   -3.9745 N.ar      1 <0>        -0.4793
     20 C15         2.6093   -1.7706   -3.2402 C.ar      1 <0>         0.1092
     21 C16        -0.8980   -2.7552    1.5106 C.ar      1 <0>        -0.1197
     22 C17         0.2258   -3.0537    2.2585 C.ar      1 <0>        -0.0966
     23 C18         0.2265   -4.1471    3.1043 C.ar      1 <0>        -0.1678
     24 C19        -0.9009   -4.9465    3.2042 C.ar      1 <0>         0.1302
     25 C20        -2.0322   -4.6458    2.4518 C.ar      1 <0>         0.1231
     26 C21        -2.0279   -3.5455    1.6095 C.ar      1 <0>        -0.1497
     27 O2         -3.1411   -5.4273    2.5464 O.3       1 <0>        -0.2866
     28 C22        -4.2231   -5.1279    1.6623 C.3       1 <0>         0.0770
     29 C23        -5.1367   -4.0547    2.2897 C.3       1 <0>        -0.1496
     30 C24        -6.5654   -4.4773    1.8663 C.3       1 <0>        -0.1234
     31 C25        -6.5068   -6.0222    1.9603 C.3       1 <0>        -0.1252
     32 C26        -5.0943   -6.3789    1.4529 C.3       1 <0>        -0.1225
     33 O3         -0.9016   -6.0228    4.0355 O.3       1 <0>        -0.2955
     34 C27         0.2947   -6.2710    4.7766 C.3       1 <0>         0.0211
     35 H1         -1.5868    2.5217    1.8922 H         1 <0>         0.1008
     36 H2         -2.9173    2.0216    0.8208 H         1 <0>         0.1095
     37 H3         -2.8921    1.4859    2.5180 H         1 <0>         0.1097
     38 H4          0.3021    2.3508    1.8081 H         1 <0>         0.4444
     39 H5          1.6431    1.3917    1.4851 H         1 <0>         0.4471
     40 H6         -2.9902   -2.5441   -0.7967 H         1 <0>         0.1370
     41 H7         -3.0503   -3.2682   -3.1470 H         1 <0>         0.1428
     42 H8         -1.0202   -3.1377   -4.5310 H         1 <0>         0.1388
     43 H9          1.1350   -1.5413   -1.1898 H         1 <0>         0.1217
     44 H10         0.4930   -3.0316   -5.5703 H         1 <0>         0.1408
     45 H11         2.5920   -2.8630   -6.8874 H         1 <0>         0.1452
     46 H12         4.6279   -2.0004   -5.8079 H         1 <0>         0.1640
     47 H13         2.6381   -1.4522   -2.2086 H         1 <0>         0.1485
     48 H14         1.1051   -2.4314    2.1815 H         1 <0>         0.1228
     49 H15         1.1059   -4.3785    3.6869 H         1 <0>         0.1482
     50 H16        -2.9059   -3.3077    1.0273 H         1 <0>         0.1491
     51 H17        -3.8369   -4.7774    0.7052 H         1 <0>         0.0745
     52 H18        -5.0429   -4.0614    3.3757 H         1 <0>         0.0812
     53 H19        -4.8965   -3.0690    1.8912 H         1 <0>         0.0715
     54 H20        -7.3074   -4.0762    2.5566 H         1 <0>         0.0749
     55 H21        -6.7752   -4.1602    0.8448 H         1 <0>         0.0715
     56 H22        -6.6344   -6.3467    2.9931 H         1 <0>         0.0725
     57 H23        -7.2666   -6.4724    1.3214 H         1 <0>         0.0748
     58 H24        -5.1315   -6.6349    0.3941 H         1 <0>         0.0806
     59 H25        -4.6917   -7.2144    2.0256 H         1 <0>         0.0851
     60 H26         0.1599   -7.1560    5.3985 H         1 <0>         0.1100
     61 H27         1.1223   -6.4346    4.0864 H         1 <0>         0.0605
     62 H28         0.5144   -5.4117    5.4102 H         1 <0>         0.0594
     63 H29         1.2114   -0.9815    0.7528 H         1 <0>         0.4646
@<TRIPOS>BOND
     1    1    2 1
     2    1   35 1
     3    1   36 1
     4    1   37 1
     5    2    7 1
     6    2    3 am
     7    3    4 2
     8    3    5 1
     9    5    6 1
    10    5    9 1
    11    5   21 1
    12    6    7 2
    13    6   63 1
    14    7    8 1
    15    8   38 1
    16    8   39 1
    17    9   14 ar
    18    9   10 ar
    19   10   11 ar
    20   10   40 1
    21   11   12 ar
    22   11   41 1
    23   12   13 ar
    24   12   42 1
    25   13   14 ar
    26   13   15 1
    27   14   43 1
    28   15   20 ar
    29   15   16 ar
    30   16   17 ar
    31   16   44 1
    32   17   18 ar
    33   17   45 1
    34   18   19 ar
    35   18   46 1
    36   19   20 ar
    37   20   47 1
    38   21   26 ar
    39   21   22 ar
    40   22   23 ar
    41   22   48 1
    42   23   24 ar
    43   23   49 1
    44   24   25 ar
    45   24   33 1
    46   25   26 ar
    47   25   27 1
    48   26   50 1
    49   27   28 1
    50   28   32 1
    51   28   29 1
    52   28   51 1
    53   29   30 1
    54   29   52 1
    55   29   53 1
    56   30   31 1
    57   30   54 1
    58   30   55 1
    59   31   32 1
    60   31   56 1
    61   31   57 1
    62   32   58 1
    63   32   59 1
    64   33   34 1
    65   34   60 1
    66   34   61 1
    67   34   62 1
@<TRIPOS>MOLECULE
CHEMBL566638__2
   63    67     0     0     0
SMALL
USER_CHARGES

@<TRIPOS>ATOM
      1 C1          1.1227    2.1373   -0.8363 C.3       1 <0>         0.0607
      2 N1          0.9215    0.6898   -0.7344 N.am      1 <0>        -0.5525
      3 C2         -0.1629    0.1097   -0.1864 C.2       1 <0>         0.5442
      4 O1         -1.1207    0.6742    0.2975 O.2       1 <0>        -0.3906
      5 C3          0.0480   -1.3854   -0.2934 C.3       1 <0>         0.2362
      6 N2          1.3558   -1.5242   -0.9545 N.pl3     1 <0>        -0.6664
      7 C4          1.8122   -0.2510   -1.1910 C.cat     1 <0>         0.7336
      8 N3          2.9442    0.0284   -1.7701 N.pl3     1 <0>        -0.7329
      9 C5          0.0816   -2.0117    1.0769 C.ar      1 <0>        -0.1067
     10 C6         -0.8870   -1.6854    2.0091 C.ar      1 <0>        -0.0931
     11 C7         -0.8622   -2.2564    3.2685 C.ar      1 <0>        -0.0966
     12 C8          0.1302   -3.1562    3.6017 C.ar      1 <0>        -0.0873
     13 C9          1.1079   -3.4888    2.6666 C.ar      1 <0>        -0.0251
     14 C10         1.0753   -2.9140    1.3975 C.ar      1 <0>        -0.0929
     15 C11         2.1773   -4.4554    3.0190 C.ar      1 <0>        -0.1099
     16 C12         2.2123   -5.0450    4.2857 C.ar      1 <0>        -0.0612
     17 C13         3.2303   -5.9402    4.5652 C.ar      1 <0>        -0.1614
     18 C14         4.1715   -6.2200    3.5912 C.ar      1 <0>         0.1088
     19 N4          4.1127   -5.6474    2.4045 N.ar      1 <0>        -0.4794
     20 C15         3.1592   -4.7941    2.0908 C.ar      1 <0>         0.1082
     21 C16        -1.0355   -2.0112   -1.1332 C.ar      1 <0>        -0.1202
     22 C17        -2.3637   -1.7498   -0.8521 C.ar      1 <0>        -0.0828
     23 C18        -3.3614   -2.3214   -1.6196 C.ar      1 <0>        -0.1647
     24 C19        -3.0311   -3.1581   -2.6736 C.ar      1 <0>         0.1298
     25 C20        -1.6943   -3.4208   -2.9568 C.ar      1 <0>         0.1156
     26 C21        -0.6991   -2.8408   -2.1866 C.ar      1 <0>        -0.1583
     27 O2         -1.3652   -4.2413   -3.9903 O.3       1 <0>        -0.2870
     28 C22         0.0181   -4.5636   -4.1476 C.3       1 <0>         0.0779
     29 C23         0.7140   -3.4958   -5.0167 C.3       1 <0>        -0.1461
     30 C24         1.7263   -4.3006   -5.8691 C.3       1 <0>        -0.1243
     31 C25         0.9468   -5.6003   -6.1888 C.3       1 <0>        -0.1255
     32 C26         0.1661   -5.9017   -4.8928 C.3       1 <0>        -0.1240
     33 O3         -4.0114   -3.7216   -3.4293 O.3       1 <0>        -0.2973
     34 C27        -5.3610   -3.4075   -3.0803 C.3       1 <0>         0.0205
     35 H1          2.0766    2.3382   -1.3239 H         1 <0>         0.0991
     36 H2          0.3154    2.5760   -1.4228 H         1 <0>         0.1110
     37 H3          1.1256    2.5749    0.1620 H         1 <0>         0.1111
     38 H4          3.2058    0.9530   -1.9029 H         1 <0>         0.4492
     39 H5         -1.6653   -0.9819    1.7527 H         1 <0>         0.1400
     40 H6         -1.6204   -1.9976    3.9927 H         1 <0>         0.1417
     41 H7          0.1489   -3.6013    4.5855 H         1 <0>         0.1373
     42 H8          1.8286   -3.1712    0.6676 H         1 <0>         0.1209
     43 H9          1.4642   -4.8079    5.0277 H         1 <0>         0.1406
     44 H10         3.2892   -6.4149    5.5336 H         1 <0>         0.1449
     45 H11         4.9672   -6.9180    3.8057 H         1 <0>         0.1635
     46 H12         3.1416   -4.3494    1.1068 H         1 <0>         0.1483
     47 H13        -2.6224   -1.0979   -0.0309 H         1 <0>         0.1408
     48 H14        -4.3981   -2.1162   -1.3974 H         1 <0>         0.1494
     49 H15         0.3393   -3.0401   -2.4067 H         1 <0>         0.1309
     50 H16         0.5004   -4.6243   -3.1719 H         1 <0>         0.0716
     51 H17        -0.0109   -2.9941   -5.6578 H         1 <0>         0.0843
     52 H18         1.2341   -2.7725   -4.3887 H         1 <0>         0.0589
     53 H19         1.9734   -3.7633   -6.7847 H         1 <0>         0.0753
     54 H20         2.6259   -4.5211   -5.2946 H         1 <0>         0.0702
     55 H21         0.2595   -5.4385   -7.0192 H         1 <0>         0.0737
     56 H22         1.6368   -6.4128   -6.4162 H         1 <0>         0.0758
     57 H23         0.7210   -6.6114   -4.2792 H         1 <0>         0.0809
     58 H24        -0.8172   -6.3052   -5.1345 H         1 <0>         0.0865
     59 H25        -6.0410   -3.9207   -3.7603 H         1 <0>         0.1096
     60 H26        -5.5567   -3.7312   -2.0580 H         1 <0>         0.0614
     61 H27        -5.5149   -2.3311   -3.1563 H         1 <0>         0.0606
     62 H28         1.8054   -2.3530   -1.1820 H         1 <0>         0.4609
     63 H29         3.5259   -0.6879   -2.0689 H         1 <0>         0.4522
@<TRIPOS>BOND
     1    1    2 1
     2    1   35 1
     3    1   36 1
     4    1   37 1
     5    2    7 1
     6    2    3 am
     7    3    4 2
     8    3    5 1
     9    5    6 1
    10    5    9 1
    11    5   21 1
    12    6    7 1
    13    6   62 1
    14    7    8 2
    15    8   38 1
    16    8   63 1
    17    9   14 ar
    18    9   10 ar
    19   10   11 ar
    20   10   39 1
    21   11   12 ar
    22   11   40 1
    23   12   13 ar
    24   12   41 1
    25   13   14 ar
    26   13   15 1
    27   14   42 1
    28   15   20 ar
    29   15   16 ar
    30   16   17 ar
    31   16   43 1
    32   17   18 ar
    33   17   44 1
    34   18   19 ar
    35   18   45 1
    36   19   20 ar
    37   20   46 1
    38   21   26 ar
    39   21   22 ar
    40   22   23 ar
    41   22   47 1
    42   23   24 ar
    43   23   48 1
    44   24   25 ar
    45   24   33 1
    46   25   26 ar
    47   25   27 1
    48   26   49 1
    49   27   28 1
    50   28   32 1
    51   28   29 1
    52   28   50 1
    53   29   30 1
    54   29   51 1
    55   29   52 1
    56   30   31 1
    57   30   53 1
    58   30   54 1
    59   31   32 1
    60   31   55 1
    61   31   56 1
    62   32   57 1
    63   32   58 1
    64   33   34 1
    65   34   59 1
    66   34   60 1
    67   34   61 1
@<TRIPOS>MOLECULE
CHEMBL566638__3
   63    67     0     0     0
SMALL
USER_CHARGES

@<TRIPOS>ATOM
      1 C1         -0.0263    2.0359   -1.5517 C.3       1 <0>         0.0624
      2 N1         -0.0161    0.6143   -1.1978 N.am      1 <0>        -0.5520
      3 C2         -1.1193   -0.1518   -1.0653 C.2       1 <0>         0.5436
      4 O1         -2.2743    0.1872   -1.2106 O.2       1 <0>        -0.3841
      5 C3         -0.6019   -1.5282   -0.6961 C.3       1 <0>         0.2258
      6 N2          0.8595   -1.3590   -0.6614 N.pl3     1 <0>        -0.6252
      7 C4          1.1173   -0.1234   -0.9611 C.cat     1 <0>         0.7336
      8 N3          2.3891    0.3929   -1.0303 N.pl3     1 <0>        -0.7776
      9 C5         -1.1187   -1.9416    0.6579 C.ar      1 <0>        -0.1081
     10 C6         -0.2390   -2.4006    1.6219 C.ar      1 <0>        -0.1036
     11 C7         -0.7063   -2.7816    2.8665 C.ar      1 <0>        -0.0991
     12 C8         -2.0545   -2.7054    3.1534 C.ar      1 <0>        -0.0874
     13 C9         -2.9447   -2.2435    2.1865 C.ar      1 <0>        -0.0158
     14 C10        -2.4677   -1.8563    0.9356 C.ar      1 <0>        -0.0856
     15 C11        -4.3950   -2.1594    2.4891 C.ar      1 <0>        -0.1163
     16 C12        -4.8816   -2.5354    3.7441 C.ar      1 <0>        -0.0600
     17 C13        -6.2426   -2.4385    3.9766 C.ar      1 <0>        -0.1654
     18 C14        -7.0699   -1.9768    2.9689 C.ar      1 <0>         0.1114
     19 N4         -6.5815   -1.6296    1.7940 N.ar      1 <0>        -0.4781
     20 C15        -5.2929   -1.6988    1.5287 C.ar      1 <0>         0.1158
     21 C16        -0.9926   -2.5385   -1.7437 C.ar      1 <0>        -0.1220
     22 C17        -2.3066   -2.6218   -2.1655 C.ar      1 <0>        -0.0818
     23 C18        -2.6700   -3.5470   -3.1263 C.ar      1 <0>        -0.1631
     24 C19        -1.7163   -4.3930   -3.6692 C.ar      1 <0>         0.1322
     25 C20        -0.3937   -4.3089   -3.2450 C.ar      1 <0>         0.1178
     26 C21        -0.0352   -3.3761   -2.2851 C.ar      1 <0>        -0.1600
     27 O2          0.5459   -5.1370   -3.7748 O.3       1 <0>        -0.2862
     28 C22         1.8588   -5.0715   -3.2143 C.3       1 <0>         0.0776
     29 C23         2.6817   -3.9758   -3.9228 C.3       1 <0>        -0.1466
     30 C24         4.1114   -4.5663   -4.0023 C.3       1 <0>        -0.1241
     31 C25         3.8468   -6.0643   -4.2938 C.3       1 <0>        -0.1256
     32 C26         2.5996   -6.3994   -3.4502 C.3       1 <0>        -0.1238
     33 O3         -2.0723   -5.3040   -4.6141 O.3       1 <0>        -0.2965
     34 C27        -3.4476   -5.3340   -5.0008 C.3       1 <0>         0.0199
     35 H1          0.9977    2.4069   -1.5952 H         1 <0>         0.1006
     36 H2         -0.5011    2.1648   -2.5243 H         1 <0>         0.1100
     37 H3         -0.5831    2.5938   -0.7987 H         1 <0>         0.1100
     38 H4          2.5218    1.3268   -1.2565 H         1 <0>         0.4446
     39 H5          3.1541   -0.1766   -0.8531 H         1 <0>         0.4463
     40 H6          0.8165   -2.4618    1.4017 H         1 <0>         0.1198
     41 H7         -0.0153   -3.1398    3.6153 H         1 <0>         0.1402
     42 H8         -2.4184   -3.0035    4.1256 H         1 <0>         0.1385
     43 H9         -3.1530   -1.4940    0.1837 H         1 <0>         0.1400
     44 H10        -4.2126   -2.8930    4.5129 H         1 <0>         0.1394
     45 H11        -6.6542   -2.7206    4.9345 H         1 <0>         0.1442
     46 H12        -8.1323   -1.8999    3.1467 H         1 <0>         0.1635
     47 H13        -4.9299   -1.4007    0.5562 H         1 <0>         0.1547
     48 H14        -3.0509   -1.9630   -1.7432 H         1 <0>         0.1402
     49 H15        -3.6973   -3.6105   -3.4536 H         1 <0>         0.1510
     50 H16         0.9913   -3.3061   -1.9568 H         1 <0>         0.1301
     51 H17         1.7984   -4.8622   -2.1462 H         1 <0>         0.0714
     52 H18         2.2894   -3.7906   -4.9228 H         1 <0>         0.0848
     53 H19         2.6803   -3.0577   -3.3354 H         1 <0>         0.0587
     54 H20         4.6740   -4.1079   -4.8156 H         1 <0>         0.0757
     55 H21         4.6333   -4.4438   -3.0532 H         1 <0>         0.0700
     56 H22         3.6426   -6.2164   -5.3537 H         1 <0>         0.0740
     57 H23         4.6957   -6.6703   -3.9771 H         1 <0>         0.0760
     58 H24         2.8995   -6.8341   -2.4967 H         1 <0>         0.0810
     59 H25         1.9577   -7.0938   -3.9922 H         1 <0>         0.0869
     60 H26        -3.5952   -6.1032   -5.7588 H         1 <0>         0.1103
     61 H27        -4.0648   -5.5582   -4.1308 H         1 <0>         0.0619
     62 H28        -3.7319   -4.3636   -5.4077 H         1 <0>         0.0614
     63 H29         1.5115   -2.0472   -0.4561 H         1 <0>         0.4631
@<TRIPOS>BOND
     1    1    2 1
     2    1   35 1
     3    1   36 1
     4    1   37 1
     5    2    7 1
     6    2    3 am
     7    3    4 2
     8    3    5 1
     9    5    6 1
    10    5    9 1
    11    5   21 1
    12    6    7 2
    13    6   63 1
    14    7    8 1
    15    8   38 1
    16    8   39 1
    17    9   14 ar
    18    9   10 ar
    19   10   11 ar
    20   10   40 1
    21   11   12 ar
    22   11   41 1
    23   12   13 ar
    24   12   42 1
    25   13   14 ar
    26   13   15 1
    27   14   43 1
    28   15   20 ar
    29   15   16 ar
    30   16   17 ar
    31   16   44 1
    32   17   18 ar
    33   17   45 1
    34   18   19 ar
    35   18   46 1
    36   19   20 ar
    37   20   47 1
    38   21   26 ar
    39   21   22 ar
    40   22   23 ar
    41   22   48 1
    42   23   24 ar
    43   23   49 1
    44   24   25 ar
    45   24   33 1
    46   25   26 ar
    47   25   27 1
    48   26   50 1
    49   27   28 1
    50   28   32 1
    51   28   29 1
    52   28   51 1
    53   29   30 1
    54   29   52 1
    55   29   53 1
    56   30   31 1
    57   30   54 1
    58   30   55 1
    59   31   32 1
    60   31   56 1
    61   31   57 1
    62   32   58 1
    63   32   59 1
    64   33   34 1
    65   34   60 1
    66   34   61 1
    67   34   62 1
@<TRIPOS>MOLECULE
CHEMBL251307
   67    71     0     0     0
SMALL
USER_CHARGES

@<TRIPOS>ATOM
      1 C1         -0.0091    1.5225   -0.3674 C.3       1 <0>        -0.2021
      2 C2          0.0173   -0.0042   -0.4652 C.3       1 <0>         0.0462
      3 C3          0.6744   -0.4162   -1.7817 C.3       1 <0>        -0.0843
      4 C4          0.9170    0.8060   -2.6330 C.ar      1 <0>        -0.1170
      5 C5          0.3851    0.8860   -3.9063 C.ar      1 <0>        -0.1116
      6 C6          0.6193    2.0092   -4.6765 C.ar      1 <0>        -0.1090
      7 C7          1.3906    3.0474   -4.1842 C.ar      1 <0>        -0.0975
      8 C8          1.9241    2.9609   -2.9133 C.ar      1 <0>        -0.0669
      9 C9          1.6838    1.8441   -2.1349 C.ar      1 <0>        -0.1139
     10 C10         2.7855    4.0749   -2.3699 C.3       1 <0>        -0.0953
     11 C11         2.1257    4.6497   -1.1158 C.3       1 <0>        -0.1220
     12 C12         3.1941    5.1293   -0.1287 C.3       1 <0>         0.2029
     13 H1          3.5619    6.1103   -0.4295 H         1 <0>         0.0827
     14 N1          2.5594    5.2180    1.2103 N.am      1 <0>        -0.8016
     15 C13         3.3384    4.8706    2.2642 C.2       1 <0>         0.5941
     16 O1          4.3244    5.5396    2.5042 O.2       1 <0>        -0.4652
     17 C14         3.0421    3.7229    3.1272 C.ar      1 <0>        -0.1388
     18 C15         2.2437    2.6884    2.6218 C.ar      1 <0>        -0.0391
     19 C16         1.9861    1.5760    3.3928 C.ar      1 <0>        -0.1206
     20 C17         2.4773    1.4834    4.6784 C.ar      1 <0>        -0.0251
     21 C18         3.2699    2.5122    5.1962 C.ar      1 <0>        -0.0095
     22 C19         3.5594    3.6293    4.4139 C.ar      1 <0>        -0.0175
     23 C20         3.8005    2.4156    6.5728 C.2       1 <0>         0.2143
     24 N2          3.6035    1.4176    7.4016 N.2       1 <0>        -0.4635
     25 C21         4.2383    1.6845    8.5530 C.2       1 <0>        -0.0387
     26 C22         4.8407    2.8806    8.4239 C.2       1 <0>        -0.0533
     27 O2          4.5705    3.3329    7.1834 O.3       1 <0>        -0.1930
     28 C23         1.1642    0.4513    2.8088 C.3       1 <0>         0.1271
     29 O3          1.5550    0.2451    1.4485 O.3       1 <0>        -0.3619
     30 C24         0.7922   -0.5660    0.6984 C.2       1 <0>         0.4844
     31 O4          0.7270   -1.7445    0.9568 O.2       1 <0>        -0.4223
     32 C25         4.3347    4.1451   -0.0913 C.ar      1 <0>        -0.1061
     33 C26         4.1020    2.8309    0.2687 C.ar      1 <0>        -0.1161
     34 C27         5.1483    1.9281    0.3029 C.ar      1 <0>        -0.1176
     35 C28         6.4271    2.3394   -0.0232 C.ar      1 <0>        -0.1092
     36 C29         6.6596    3.6534   -0.3841 C.ar      1 <0>        -0.1120
     37 C30         5.6126    4.5552   -0.4225 C.ar      1 <0>        -0.0931
     38 N3         -1.3582   -0.5185   -0.4284 N.4       1 <0>        -0.6232
     39 H2          0.9861    1.8876   -0.1137 H         1 <0>         0.1266
     40 H3         -0.3171    1.9426   -1.3249 H         1 <0>         0.1178
     41 H4         -0.7152    1.8248    0.4060 H         1 <0>         0.0870
     42 H5          1.6247   -0.9083   -1.5744 H         1 <0>         0.1182
     43 H6          0.0187   -1.1049   -2.3144 H         1 <0>         0.1093
     44 H7         -0.2103    0.0744   -4.2975 H         1 <0>         0.1265
     45 H8          0.1975    2.0774   -5.6684 H         1 <0>         0.1297
     46 H9          1.5749    3.9213   -4.7914 H         1 <0>         0.1310
     47 H10         2.0940    1.7823   -1.1377 H         1 <0>         0.1314
     48 H11         3.7708    3.6835   -2.1167 H         1 <0>         0.0952
     49 H12         2.8850    4.8584   -3.1212 H         1 <0>         0.0811
     50 H13         1.4891    5.4892   -1.3951 H         1 <0>         0.0794
     51 H14         1.5168    3.8793   -0.6428 H         1 <0>         0.0683
     52 H15         1.6408    5.5080    1.3246 H         1 <0>         0.4129
     53 H16         1.8297    2.7631    1.6271 H         1 <0>         0.1378
     54 H17         2.2498    0.6184    5.2837 H         1 <0>         0.1507
     55 H18         4.1835    4.4188    4.8060 H         1 <0>         0.1481
     56 H19         4.2615    1.0518    9.4280 H         1 <0>         0.1925
     57 H20         5.4344    3.3828    9.1734 H         1 <0>         0.2242
     58 H21         1.3366   -0.4609    3.3800 H         1 <0>         0.0961
     59 H22         0.1070    0.7135    2.8487 H         1 <0>         0.0857
     60 H23         3.1029    2.5095    0.5235 H         1 <0>         0.1194
     61 H24         4.9667    0.9015    0.5849 H         1 <0>         0.1199
     62 H25         7.2446    1.6342    0.0043 H         1 <0>         0.1238
     63 H26         7.6587    3.9748   -0.6386 H         1 <0>         0.1267
     64 H27         5.7935    5.5809   -0.7080 H         1 <0>         0.1257
     65 H28        -1.8798   -0.1398   -1.2047 H         1 <0>         0.4490
     66 H29        -1.3427   -1.5253   -0.4928 H         1 <0>         0.4441
     67 H30        -1.7970   -0.2436    0.4377 H         1 <0>         0.4369
@<TRIPOS>BOND
     1    1    2 1
     2    1   39 1
     3    1   40 1
     4    1   41 1
     5    2   30 1
     6    2    3 1
     7    2   38 1
     8    3    4 1
     9    3   42 1
    10    3   43 1
    11    4    9 ar
    12    4    5 ar
    13    5    6 ar
    14    5   44 1
    15    6    7 ar
    16    6   45 1
    17    7    8 ar
    18    7   46 1
    19    8    9 ar
    20    8   10 1
    21    9   47 1
    22   10   11 1
    23   10   48 1
    24   10   49 1
    25   11   12 1
    26   11   50 1
    27   11   51 1
    28   12   13 1
    29   12   14 1
    30   12   32 1
    31   14   15 am
    32   14   52 1
    33   15   16 2
    34   15   17 1
    35   17   22 ar
    36   17   18 ar
    37   18   19 ar
    38   18   53 1
    39   19   20 ar
    40   19   28 1
    41   20   21 ar
    42   20   54 1
    43   21   22 ar
    44   21   23 1
    45   22   55 1
    46   23   27 1
    47   23   24 2
    48   24   25 1
    49   25   26 2
    50   25   56 1
    51   26   27 1
    52   26   57 1
    53   28   29 1
    54   28   58 1
    55   28   59 1
    56   29   30 1
    57   30   31 2
    58   32   37 ar
    59   32   33 ar
    60   33   34 ar
    61   33   60 1
    62   34   35 ar
    63   34   61 1
    64   35   36 ar
    65   35   62 1
    66   36   37 ar
    67   36   63 1
    68   37   64 1
    69   38   65 1
    70   38   66 1
    71   38   67 1
@<TRIPOS>MOLECULE
CHEMBL251307__1
   66    70     0     0     0
SMALL
USER_CHARGES

@<TRIPOS>ATOM
      1 C1         -0.0091    1.5225   -0.3674 C.3       1 <0>        -0.2018
      2 C2          0.0173   -0.0042   -0.4652 C.3       1 <0>         0.1162
      3 C3          0.6744   -0.4162   -1.7817 C.3       1 <0>        -0.0685
      4 C4          0.9170    0.8060   -2.6330 C.ar      1 <0>        -0.0855
      5 C5          0.3851    0.8860   -3.9063 C.ar      1 <0>        -0.1169
      6 C6          0.6193    2.0092   -4.6765 C.ar      1 <0>        -0.1164
      7 C7          1.3906    3.0474   -4.1842 C.ar      1 <0>        -0.1156
      8 C8          1.9241    2.9609   -2.9133 C.ar      1 <0>        -0.0795
      9 C9          1.6838    1.8441   -2.1349 C.ar      1 <0>        -0.1112
     10 C10         2.7855    4.0749   -2.3699 C.3       1 <0>        -0.0869
     11 C11         2.1257    4.6497   -1.1158 C.3       1 <0>        -0.1267
     12 C12         3.1941    5.1293   -0.1287 C.3       1 <0>         0.2050
     13 H1          3.5619    6.1103   -0.4295 H         1 <0>         0.0795
     14 N1          2.5594    5.2180    1.2103 N.am      1 <0>        -0.8015
     15 C13         3.3384    4.8706    2.2642 C.2       1 <0>         0.5991
     16 O1          4.3244    5.5396    2.5042 O.2       1 <0>        -0.4743
     17 C14         3.0421    3.7229    3.1272 C.ar      1 <0>        -0.1457
     18 C15         2.2437    2.6884    2.6218 C.ar      1 <0>        -0.0337
     19 C16         1.9861    1.5760    3.3928 C.ar      1 <0>        -0.1078
     20 C17         2.4773    1.4834    4.6784 C.ar      1 <0>        -0.0261
     21 C18         3.2699    2.5122    5.1962 C.ar      1 <0>        -0.0219
     22 C19         3.5594    3.6293    4.4139 C.ar      1 <0>        -0.0225
     23 C20         3.8005    2.4156    6.5728 C.2       1 <0>         0.2278
     24 N2          3.6035    1.4176    7.4016 N.2       1 <0>        -0.4678
     25 C21         4.2383    1.6845    8.5530 C.2       1 <0>        -0.0381
     26 C22         4.8407    2.8806    8.4239 C.2       1 <0>        -0.0644
     27 O2          4.5705    3.3329    7.1834 O.3       1 <0>        -0.1943
     28 C23         1.1642    0.4513    2.8088 C.3       1 <0>         0.1267
     29 O3          1.5550    0.2451    1.4485 O.3       1 <0>        -0.3861
     30 C24         0.7922   -0.5660    0.6984 C.2       1 <0>         0.4903
     31 O4          0.7270   -1.7445    0.9568 O.2       1 <0>        -0.4372
     32 C25         4.3347    4.1451   -0.0913 C.ar      1 <0>        -0.1039
     33 C26         4.1020    2.8309    0.2687 C.ar      1 <0>        -0.1103
     34 C27         5.1483    1.9281    0.3029 C.ar      1 <0>        -0.1150
     35 C28         6.4271    2.3394   -0.0232 C.ar      1 <0>        -0.1119
     36 C29         6.6596    3.6534   -0.3841 C.ar      1 <0>        -0.1173
     37 C30         5.6126    4.5552   -0.4225 C.ar      1 <0>        -0.0960
     38 N3         -1.3582   -0.5185   -0.4284 N.3       1 <0>        -0.8217
     39 H2          0.9861    1.8876   -0.1136 H         1 <0>         0.0853
     40 H3         -0.3171    1.9426   -1.3249 H         1 <0>         0.0859
     41 H4         -0.7152    1.8248    0.4060 H         1 <0>         0.0563
     42 H5          1.6247   -0.9083   -1.5744 H         1 <0>         0.0843
     43 H6          0.0187   -1.1049   -2.3144 H         1 <0>         0.0974
     44 H7         -0.2103    0.0744   -4.2975 H         1 <0>         0.1231
     45 H8          0.1975    2.0774   -5.6684 H         1 <0>         0.1211
     46 H9          1.5749    3.9213   -4.7914 H         1 <0>         0.1216
     47 H10         2.0940    1.7823   -1.1377 H         1 <0>         0.1300
     48 H11         3.7708    3.6835   -2.1167 H         1 <0>         0.0895
     49 H12         2.8850    4.8584   -3.1212 H         1 <0>         0.0743
     50 H13         1.4891    5.4892   -1.3951 H         1 <0>         0.0758
     51 H14         1.5168    3.8793   -0.6428 H         1 <0>         0.0750
     52 H15         1.6408    5.5080    1.3246 H         1 <0>         0.4130
     53 H16         1.8297    2.7631    1.6271 H         1 <0>         0.1419
     54 H17         2.2498    0.6184    5.2837 H         1 <0>         0.1489
     55 H18         4.1835    4.4188    4.8060 H         1 <0>         0.1442
     56 H19         4.2615    1.0518    9.4280 H         1 <0>         0.1898
     57 H20         5.4344    3.3828    9.1734 H         1 <0>         0.2210
     58 H21         1.3366   -0.4609    3.3800 H         1 <0>         0.0845
     59 H22         0.1070    0.7135    2.8487 H         1 <0>         0.0796
     60 H23         3.1029    2.5095    0.5235 H         1 <0>         0.1255
     61 H24         4.9667    0.9015    0.5849 H         1 <0>         0.1220
     62 H25         7.2446    1.6342    0.0043 H         1 <0>         0.1214
     63 H26         7.6587    3.9748   -0.6386 H         1 <0>         0.1230
     64 H27         5.7935    5.5809   -0.7080 H         1 <0>         0.1227
     65 H28        -1.8194   -0.2563    0.4299 H         1 <0>         0.3452
     66 H29        -1.8830   -0.2052   -1.2312 H         1 <0>         0.3595
@<TRIPOS>BOND
     1    1    2 1
     2    1   39 1
     3    1   40 1
     4    1   41 1
     5    2   30 1
     6    2    3 1
     7    2   38 1
     8    3    4 1
     9    3   42 1
    10    3   43 1
    11    4    9 ar
    12    4    5 ar
    13    5    6 ar
    14    5   44 1
    15    6    7 ar
    16    6   45 1
    17    7    8 ar
    18    7   46 1
    19    8    9 ar
    20    8   10 1
    21    9   47 1
    22   10   11 1
    23   10   48 1
    24   10   49 1
    25   11   12 1
    26   11   50 1
    27   11   51 1
    28   12   13 1
    29   12   14 1
    30   12   32 1
    31   14   15 am
    32   14   52 1
    33   15   16 2
    34   15   17 1
    35   17   22 ar
    36   17   18 ar
    37   18   19 ar
    38   18   53 1
    39   19   20 ar
    40   19   28 1
    41   20   21 ar
    42   20   54 1
    43   21   22 ar
    44   21   23 1
    45   22   55 1
    46   23   27 1
    47   23   24 2
    48   24   25 1
    49   25   26 2
    50   25   56 1
    51   26   27 1
    52   26   57 1
    53   28   29 1
    54   28   58 1
    55   28   59 1
    56   29   30 1
    57   30   31 2
    58   32   37 ar
    59   32   33 ar
    60   33   34 ar
    61   33   60 1
    62   34   35 ar
    63   34   61 1
    64   35   36 ar
    65   35   62 1
    66   36   37 ar
    67   36   63 1
    68   37   64 1
    69   38   65 1
    70   38   66 1
@<TRIPOS>MOLECULE
CHEMBL1209055
   67    70     0     0     0
SMALL
USER_CHARGES

@<TRIPOS>ATOM
      1 C1         -0.5271    2.5632    0.6607 C.3       1 <0>        -0.1841
      2 C2         -0.7057    1.0958    0.3677 C.2       1 <0>         0.5121
      3 O1          0.2371    0.4340   -0.0118 O.2       1 <0>        -0.5318
      4 N1         -1.9133    0.5189    0.5275 N.am      1 <0>        -0.7328
      5 C3         -2.0870   -0.9076    0.2427 C.3       1 <0>         0.1326
      6 H1         -3.1229   -1.1917    0.4280 H         1 <0>         0.1052
      7 C4         -1.7372   -1.1817   -1.2214 C.3       1 <0>        -0.0988
      8 C5         -2.7233   -0.4739   -2.1144 C.ar      1 <0>        -0.0281
      9 C6         -3.8834   -1.1147   -2.5066 C.ar      1 <0>        -0.1646
     10 C7         -4.7900   -0.4654   -3.3275 C.ar      1 <0>         0.1396
     11 C8         -4.5343    0.8260   -3.7551 C.ar      1 <0>        -0.1924
     12 C9         -3.3724    1.4670   -3.3613 C.ar      1 <0>         0.1388
     13 C10        -2.4697    0.8176   -2.5361 C.ar      1 <0>        -0.1582
     14 F1         -3.1216    2.7274   -3.7778 F         1 <0>        -0.1259
     15 F2         -5.9235   -1.0924   -3.7114 F         1 <0>        -0.1257
     16 C11        -1.1641   -1.7247    1.1491 C.3       1 <0>         0.0682
     17 H2         -0.1282   -1.4407    0.9637 H         1 <0>         0.1454
     18 C12        -1.5139   -1.4507    2.6131 C.3       1 <0>        -0.0560
     19 N2         -0.5526   -2.1407    3.4837 N.4       1 <0>        -0.4989
     20 C13        -0.9599   -1.9812    4.8861 C.3       1 <0>         0.1173
     21 C14         0.0512   -2.6845    5.7939 C.3       1 <0>        -0.1316
     22 C15         1.4355   -2.0653    5.5913 C.3       1 <0>        -0.1359
     23 C16         1.3847   -0.5768    5.9415 C.3       1 <0>        -0.1323
     24 C17         0.3736    0.1264    5.0337 C.3       1 <0>        -0.1346
     25 C18        -1.0107   -0.4927    5.2363 C.3       1 <0>        -0.1368
     26 C19        -2.3234   -2.5911    5.0856 C.ar      1 <0>        -0.1246
     27 C20        -2.7483   -3.6172    4.2606 C.ar      1 <0>        -0.1347
     28 C21        -3.9983   -4.1819    4.4382 C.ar      1 <0>        -0.0955
     29 C22        -4.8292   -3.7240    5.4408 C.ar      1 <0>        -0.0865
     30 C23        -4.4065   -2.6908    6.2748 C.ar      1 <0>         0.0085
     31 C24        -3.1436   -2.1289    6.0945 C.ar      1 <0>        -0.0628
     32 C25        -5.2951   -2.1941    7.3538 C.2       1 <0>         0.0786
     33 C26        -6.4945   -2.7929    7.6324 C.2       1 <0>        -0.2153
     34 S1         -7.0676   -1.7713    8.9799 S.3       1 <0>         0.1545
     35 C27        -5.7584   -0.7165    9.0485 C.2       1 <0>         0.0346
     36 N3         -4.9672   -1.1507    8.1025 N.2       1 <0>        -0.5135
     37 O2         -1.3335   -3.1162    0.8713 O.3       1 <0>        -0.5423
     38 H3          0.5088    2.8472    0.4754 H         1 <0>         0.1002
     39 H4         -1.1845    3.1453    0.0150 H         1 <0>         0.0958
     40 H5         -0.7763    2.7584    1.7037 H         1 <0>         0.0910
     41 H6         -2.6673    1.0482    0.8311 H         1 <0>         0.4118
     42 H7         -0.7315   -0.8163   -1.4292 H         1 <0>         0.1084
     43 H8         -1.7804   -2.2543   -1.4106 H         1 <0>         0.1016
     44 H9         -4.0827   -2.1223   -2.1728 H         1 <0>         0.1430
     45 H10        -5.2407    1.3330   -4.3957 H         1 <0>         0.1522
     46 H11        -1.5651    1.3192   -2.2252 H         1 <0>         0.1362
     47 H12        -1.4707   -0.3781    2.8024 H         1 <0>         0.1413
     48 H13        -2.5196   -1.8161    2.8210 H         1 <0>         0.1412
     49 H14        -0.5306   -3.1218    3.2493 H         1 <0>         0.4275
     50 H15        -0.2510   -2.5662    6.8344 H         1 <0>         0.1136
     51 H16         0.0874   -3.7449    5.5444 H         1 <0>         0.0910
     52 H17         2.1558   -2.5664    6.2380 H         1 <0>         0.0956
     53 H18         1.7377   -2.1836    4.5507 H         1 <0>         0.0578
     54 H19         1.0825   -0.4585    6.9821 H         1 <0>         0.0808
     55 H20         2.3709   -0.1357    5.7972 H         1 <0>         0.0825
     56 H21         0.3374    1.1869    5.2832 H         1 <0>         0.0944
     57 H22         0.6758    0.0081    3.9931 H         1 <0>         0.0564
     58 H23        -1.7310    0.0083    4.5895 H         1 <0>         0.0888
     59 H24        -1.3129   -0.3744    6.2769 H         1 <0>         0.1156
     60 H25        -2.1016   -3.9783    3.4746 H         1 <0>         0.1193
     61 H26        -4.3250   -4.9824    3.7910 H         1 <0>         0.1409
     62 H27        -5.8052   -4.1654    5.5784 H         1 <0>         0.1373
     63 H28        -2.8092   -1.3309    6.7408 H         1 <0>         0.1448
     64 H29        -6.9639   -3.6466    7.1662 H         1 <0>         0.2006
     65 H30        -5.6062    0.1180    9.7171 H         1 <0>         0.2246
     66 H31        -2.2336   -3.4392    1.0149 H         1 <0>         0.3862
     67 H32         0.3654   -1.7430    3.3528 H         1 <0>         0.4278
@<TRIPOS>BOND
     1    1    2 1
     2    1   38 1
     3    1   39 1
     4    1   40 1
     5    2    3 2
     6    2    4 am
     7    4    5 1
     8    4   41 1
     9    5    6 1
    10    5    7 1
    11    5   16 1
    12    7    8 1
    13    7   42 1
    14    7   43 1
    15    8   13 ar
    16    8    9 ar
    17    9   10 ar
    18    9   44 1
    19   10   11 ar
    20   10   15 1
    21   11   12 ar
    22   11   45 1
    23   12   13 ar
    24   12   14 1
    25   13   46 1
    26   16   17 1
    27   16   18 1
    28   16   37 1
    29   18   19 1
    30   18   47 1
    31   18   48 1
    32   19   20 1
    33   19   49 1
    34   19   67 1
    35   20   25 1
    36   20   21 1
    37   20   26 1
    38   21   22 1
    39   21   50 1
    40   21   51 1
    41   22   23 1
    42   22   52 1
    43   22   53 1
    44   23   24 1
    45   23   54 1
    46   23   55 1
    47   24   25 1
    48   24   56 1
    49   24   57 1
    50   25   58 1
    51   25   59 1
    52   26   31 ar
    53   26   27 ar
    54   27   28 ar
    55   27   60 1
    56   28   29 ar
    57   28   61 1
    58   29   30 ar
    59   29   62 1
    60   30   31 ar
    61   30   32 1
    62   31   63 1
    63   32   36 1
    64   32   33 2
    65   33   34 1
    66   33   64 1
    67   34   35 1
    68   35   36 2
    69   35   65 1
    70   37   66 1
@<TRIPOS>MOLECULE
CHEMBL595065
   85    89     0     0     0
SMALL
USER_CHARGES

@<TRIPOS>ATOM
      1 C1         -1.9906    4.3487   -0.9880 C.3       1 <0>        -0.1489
      2 C2         -1.6022    4.3799   -2.4676 C.3       1 <0>        -0.0616
      3 C3         -0.4238    5.3354   -2.6656 C.3       1 <0>        -0.1495
      4 C4         -1.2066    2.9955   -2.9124 C.ar      1 <0>        -0.0654
      5 C5         -0.1506    2.3476   -2.2987 C.ar      1 <0>        -0.0799
      6 C6          0.2122    1.0779   -2.7066 C.ar      1 <0>        -0.1106
      7 C7         -0.4811    0.4554   -3.7281 C.ar      1 <0>        -0.0978
      8 C8         -1.5373    1.1027   -4.3410 C.ar      1 <0>        -0.1630
      9 C9         -1.9030    2.3711   -3.9300 C.ar      1 <0>        -0.0928
     10 C10        -2.2927    0.4244   -5.4547 C.3       1 <0>         0.0471
     11 N1         -3.4109   -0.3437   -4.8911 N.4       1 <0>        -0.4991
     12 C11        -4.1472   -1.0048   -5.9767 C.3       1 <0>        -0.0690
     13 C12        -5.3118   -1.8048   -5.3896 C.3       1 <0>         0.0957
     14 H1         -4.9351   -2.4925   -4.6325 H         1 <0>         0.1599
     15 C13        -5.9980   -2.5985   -6.5033 C.3       1 <0>         0.1217
     16 H2         -5.2843   -3.2911   -6.9494 H         1 <0>         0.0947
     17 C14        -6.5117   -1.6370   -7.5725 C.3       1 <0>        -0.1072
     18 C15        -6.6870   -2.3713   -8.8771 C.ar      1 <0>        -0.0688
     19 C16        -5.9340   -2.0132   -9.9786 C.ar      1 <0>        -0.1358
     20 C17        -6.0958   -2.6880  -11.1765 C.ar      1 <0>        -0.0845
     21 C18        -7.0140   -3.7197  -11.2694 C.ar      1 <0>        -0.1348
     22 C19        -7.7742   -4.0776  -10.1626 C.ar      1 <0>         0.1232
     23 C20        -7.6082   -3.3944   -8.9669 C.ar      1 <0>        -0.1729
     24 O1         -8.6701   -5.0952  -10.2509 O.3       1 <0>        -0.3220
     25 C21        -8.5894   -6.1084   -9.2476 C.3       1 <0>         0.0618
     26 C22        -9.9034   -6.1305   -8.4591 C.3       1 <0>        -0.1439
     27 C23        -9.6482   -6.6881   -7.0557 C.3       1 <0>        -0.1581
     28 C24       -10.8965   -6.4743   -6.1990 C.3       1 <0>         0.1197
     29 N2        -10.6277   -6.9484   -4.8162 N.pl3     1 <0>        -0.7541
     30 C25        -9.7781   -6.1130   -4.0555 C.ar      1 <0>         0.2462
     31 C26        -8.9574   -5.1935   -4.6860 C.ar      1 <0>        -0.2134
     32 C27        -8.1097   -4.3841   -3.9279 C.ar      1 <0>        -0.0625
     33 C28        -8.1142   -4.4868   -2.5356 C.ar      1 <0>        -0.1704
     34 C29        -8.9333   -5.4199   -1.9114 C.ar      1 <0>         0.2562
     35 C30        -9.7542   -6.2454   -2.6759 C.ar      1 <0>        -0.2171
     36 N3         -8.9330   -5.5300   -0.5194 N.pl3     1 <0>        -0.5895
     37 C31        -8.1382   -4.7396    0.4354 C.3       1 <0>         0.2811
     38 O2         -8.5100   -5.2471    1.7242 O.3       1 <0>        -0.3049
     39 C32        -9.4257   -6.2300    1.5352 C.2       1 <0>        -0.0299
     40 C33        -9.6931   -6.4110    0.2599 C.2       1 <0>        -0.0317
     41 C34        -7.1704   -3.4528   -4.5834 C.2       1 <0>         0.5693
     42 O3         -6.4257   -2.7694   -3.9083 O.2       1 <0>        -0.4993
     43 N4         -7.1353   -3.3565   -5.9403 N.am      1 <0>        -0.7268
     44 O4         -6.2526   -0.9092   -4.7939 O.3       1 <0>        -0.5210
     45 H3         -2.2767    5.3501   -0.6663 H         1 <0>         0.0663
     46 H4         -2.8301    3.6680   -0.8470 H         1 <0>         0.0565
     47 H5         -1.1415    4.0059   -0.3967 H         1 <0>         0.0595
     48 H6         -2.4513    4.7228   -3.0589 H         1 <0>         0.0813
     49 H7         -0.7099    6.3368   -2.3439 H         1 <0>         0.0663
     50 H8          0.4253    4.9926   -2.0742 H         1 <0>         0.0594
     51 H9         -0.1471    5.3576   -3.7196 H         1 <0>         0.0576
     52 H10         0.3910    2.8338   -1.5008 H         1 <0>         0.1338
     53 H11         1.0376    0.5721   -2.2277 H         1 <0>         0.1355
     54 H12        -0.1971   -0.5365   -4.0473 H         1 <0>         0.1303
     55 H13        -2.7307    2.8754   -4.4064 H         1 <0>         0.1295
     56 H14        -2.6788    1.1767   -6.1426 H         1 <0>         0.1353
     57 H15        -1.6233   -0.2484   -5.9906 H         1 <0>         0.1367
     58 H16        -3.0534   -1.0400   -4.2543 H         1 <0>         0.4282
     59 H17        -4.5334   -0.2526   -6.6645 H         1 <0>         0.1320
     60 H18        -3.4778   -1.6777   -6.5126 H         1 <0>         0.1400
     61 H19        -7.4698   -1.2234   -7.2578 H         1 <0>         0.0949
     62 H20        -5.7947   -0.8269   -7.7060 H         1 <0>         0.0858
     63 H21        -5.2195   -1.2067   -9.9052 H         1 <0>         0.1242
     64 H22        -5.5065   -2.4095  -12.0377 H         1 <0>         0.1340
     65 H23        -7.1395   -4.2474  -12.2033 H         1 <0>         0.1349
     66 H24        -8.2003   -3.6642   -8.1049 H         1 <0>         0.1179
     67 H25        -8.4305   -7.0779   -9.7197 H         1 <0>         0.0889
     68 H26        -7.7621   -5.8889   -8.5727 H         1 <0>         0.0625
     69 H27       -10.2974   -5.1172   -8.3812 H         1 <0>         0.0753
     70 H28       -10.6262   -6.7625   -8.9752 H         1 <0>         0.0810
     71 H29        -9.4290   -7.7539   -7.1212 H         1 <0>         0.0757
     72 H30        -8.8031   -6.1679   -6.6049 H         1 <0>         0.0793
     73 H31       -11.1465   -5.4136   -6.1781 H         1 <0>         0.0701
     74 H32       -11.7289   -7.0371   -6.6215 H         1 <0>         0.0848
     75 H33       -11.0061   -7.7686   -4.4628 H         1 <0>         0.4124
     76 H34        -8.9727   -5.1028   -5.7621 H         1 <0>         0.1370
     77 H35        -7.4813   -3.8418   -1.9441 H         1 <0>         0.1322
     78 H36       -10.3720   -6.9886   -2.1939 H         1 <0>         0.1284
     79 H37        -7.0731   -4.8911    0.2602 H         1 <0>         0.0831
     80 H38        -8.3905   -3.6822    0.3561 H         1 <0>         0.0838
     81 H39        -9.8837   -6.7925    2.3353 H         1 <0>         0.1971
     82 H40       -10.3936   -7.1352   -0.1292 H         1 <0>         0.1717
     83 H41        -7.8146   -3.7597   -6.5032 H         1 <0>         0.4121
     84 H42        -6.6297   -0.2673   -5.4110 H         1 <0>         0.3628
     85 H43        -4.0306    0.2792   -4.3950 H         1 <0>         0.4318
@<TRIPOS>BOND
     1    1    2 1
     2    1   45 1
     3    1   46 1
     4    1   47 1
     5    2    3 1
     6    2    4 1
     7    2   48 1
     8    3   49 1
     9    3   50 1
    10    3   51 1
    11    4    9 ar
    12    4    5 ar
    13    5    6 ar
    14    5   52 1
    15    6    7 ar
    16    6   53 1
    17    7    8 ar
    18    7   54 1
    19    8    9 ar
    20    8   10 1
    21    9   55 1
    22   10   11 1
    23   10   56 1
    24   10   57 1
    25   11   12 1
    26   11   58 1
    27   11   85 1
    28   12   13 1
    29   12   59 1
    30   12   60 1
    31   13   14 1
    32   13   15 1
    33   13   44 1
    34   15   16 1
    35   15   43 1
    36   15   17 1
    37   17   18 1
    38   17   61 1
    39   17   62 1
    40   18   23 ar
    41   18   19 ar
    42   19   20 ar
    43   19   63 1
    44   20   21 ar
    45   20   64 1
    46   21   22 ar
    47   21   65 1
    48   22   23 ar
    49   22   24 1
    50   23   66 1
    51   24   25 1
    52   25   26 1
    53   25   67 1
    54   25   68 1
    55   26   27 1
    56   26   69 1
    57   26   70 1
    58   27   28 1
    59   27   71 1
    60   27   72 1
    61   28   29 1
    62   28   73 1
    63   28   74 1
    64   29   30 1
    65   29   75 1
    66   30   35 ar
    67   30   31 ar
    68   31   32 ar
    69   31   76 1
    70   32   33 ar
    71   32   41 1
    72   33   34 ar
    73   33   77 1
    74   34   35 ar
    75   34   36 1
    76   35   78 1
    77   36   40 1
    78   36   37 1
    79   37   38 1
    80   37   79 1
    81   37   80 1
    82   38   39 1
    83   39   40 2
    84   39   81 1
    85   40   82 1
    86   41   42 2
    87   41   43 am
    88   43   83 1
    89   44   84 1
@<TRIPOS>MOLECULE
CHEMBL595065__1
   86    90     0     0     0
SMALL
USER_CHARGES

@<TRIPOS>ATOM
      1 C1         -2.3715    4.7319   -1.2791 C.3       1 <0>        -0.1486
      2 C2         -1.9089    4.6705   -2.7362 C.3       1 <0>        -0.0620
      3 C3         -0.7457    5.6425   -2.9434 C.3       1 <0>        -0.1508
      4 C4         -1.4573    3.2700   -3.0613 C.ar      1 <0>        -0.0639
      5 C5         -0.4185    2.6964   -2.3517 C.ar      1 <0>        -0.0782
      6 C6         -0.0043    1.4120   -2.6499 C.ar      1 <0>        -0.1101
      7 C7         -0.6291    0.7005   -3.6573 C.ar      1 <0>        -0.0984
      8 C8         -1.6681    1.2735   -4.3660 C.ar      1 <0>        -0.1654
      9 C9         -2.0853    2.5568   -4.0649 C.ar      1 <0>        -0.0932
     10 C10        -2.3488    0.4982   -5.4645 C.3       1 <0>         0.0469
     11 N1         -3.4752   -0.2597   -4.9033 N.4       1 <0>        -0.4983
     12 C11        -4.1387   -1.0155   -5.9741 C.3       1 <0>        -0.0698
     13 C12        -5.3118   -1.8048   -5.3896 C.3       1 <0>         0.0951
     14 H1         -4.9438   -2.4919   -4.6277 H         1 <0>         0.1608
     15 C13        -5.9978   -2.5984   -6.5034 C.3       1 <0>         0.1194
     16 H2         -5.2846   -3.2912   -6.9500 H         1 <0>         0.1021
     17 C14        -6.5147   -1.6361   -7.5734 C.3       1 <0>        -0.1067
     18 C15        -6.6944   -2.3741   -8.8764 C.ar      1 <0>        -0.0733
     19 C16        -5.9227   -2.0404   -9.9753 C.ar      1 <0>        -0.1326
     20 C17        -6.0854   -2.7216  -11.1661 C.ar      1 <0>        -0.0809
     21 C18        -7.0224   -3.7318  -11.2680 C.ar      1 <0>        -0.1292
     22 C19        -7.7924   -4.0683  -10.1659 C.ar      1 <0>         0.1231
     23 C20        -7.6281   -3.3862   -8.9705 C.ar      1 <0>        -0.1762
     24 O1         -8.7039   -5.0748  -10.2519 O.3       1 <0>        -0.3222
     25 C21        -8.6579   -6.0830   -9.2386 C.3       1 <0>         0.0630
     26 C22        -9.9821   -6.1019   -8.4753 C.3       1 <0>        -0.1457
     27 C23        -9.7424   -6.6057   -7.0495 C.3       1 <0>        -0.1565
     28 C24       -10.9865   -6.3464   -6.1975 C.3       1 <0>         0.1094
     29 N2        -10.7435   -6.8229   -4.8172 N.pl3     1 <0>        -0.7388
     30 C25        -9.8576   -6.0220   -4.0512 C.ar      1 <0>         0.2315
     31 C26        -9.0045   -5.1292   -4.6787 C.ar      1 <0>        -0.1279
     32 C27        -8.1215   -4.3550   -3.9227 C.ar      1 <0>        -0.0749
     33 C28        -8.1169   -4.4736   -2.5316 C.ar      1 <0>        -0.0803
     34 C29        -8.9668   -5.3807   -1.9053 C.ar      1 <0>         0.0632
     35 C30        -9.8336   -6.1625   -2.6718 C.ar      1 <0>        -0.1413
     36 N3         -8.9533   -5.5062   -0.5376 N.pl3     1 <0>        -0.3645
     37 C31        -7.7463   -5.5841    0.2938 C.3       1 <0>         0.2003
     38 O2         -8.1644   -5.2955    1.6415 O.3       1 <0>        -0.3179
     39 C32        -9.5475   -5.7033    1.6526 C.3       1 <0>         0.0223
     40 C33       -10.0009   -5.5681    0.2157 C.2       1 <0>         0.2767
     41 C34        -7.1724   -3.4398   -4.5842 C.2       1 <0>         0.5638
     42 O3         -6.4192   -2.7606   -3.9142 O.2       1 <0>        -0.4879
     43 N4         -7.1360   -3.3545   -5.9424 N.am      1 <0>        -0.7195
     44 O4         -6.2493   -0.9001   -4.8025 O.3       1 <0>        -0.5275
     45 H3         -2.6981    5.7449   -1.0440 H         1 <0>         0.0675
     46 H4         -3.2002    4.0394   -1.1315 H         1 <0>         0.0546
     47 H5         -1.5456    4.4551   -0.6237 H         1 <0>         0.0599
     48 H6         -2.7348    4.9473   -3.3915 H         1 <0>         0.0813
     49 H7         -0.4161    5.5987   -3.9815 H         1 <0>         0.0584
     50 H8         -1.0723    6.6555   -2.7083 H         1 <0>         0.0678
     51 H9          0.0802    5.3657   -2.2881 H         1 <0>         0.0601
     52 H10         0.0695    3.2522   -1.5648 H         1 <0>         0.1351
     53 H11         0.8076    0.9642   -2.0961 H         1 <0>         0.1363
     54 H12        -0.3050   -0.3029   -3.8908 H         1 <0>         0.1299
     55 H13        -2.8997    3.0032   -4.6162 H         1 <0>         0.1294
     56 H14        -2.7176    1.1894   -6.2223 H         1 <0>         0.1366
     57 H15        -1.6366   -0.1915   -5.9175 H         1 <0>         0.1378
     58 H16        -3.1338   -0.8995   -4.2018 H         1 <0>         0.4274
     59 H17        -4.5075   -0.3243   -6.7319 H         1 <0>         0.1340
     60 H18        -3.4265   -1.7051   -6.4271 H         1 <0>         0.1426
     61 H19        -7.4716   -1.2214   -7.2565 H         1 <0>         0.0951
     62 H20        -5.7972   -0.8271   -7.7107 H         1 <0>         0.0901
     63 H21        -5.1934   -1.2472   -9.9022 H         1 <0>         0.1264
     64 H22        -5.4779   -2.4632  -12.0209 H         1 <0>         0.1365
     65 H23        -7.1545   -4.2567  -12.2026 H         1 <0>         0.1388
     66 H24        -8.2303   -3.6468   -8.1127 H         1 <0>         0.1130
     67 H25        -8.4917   -7.0557   -9.7016 H         1 <0>         0.0904
     68 H26        -7.8434   -5.8662   -8.5474 H         1 <0>         0.0594
     69 H27       -10.3954   -5.0940   -8.4399 H         1 <0>         0.0785
     70 H28       -10.6838   -6.7647   -8.9817 H         1 <0>         0.0871
     71 H29        -9.5349   -7.6755   -7.0726 H         1 <0>         0.0826
     72 H30        -8.8906   -6.0805   -6.6173 H         1 <0>         0.0689
     73 H31       -11.1997   -5.2776   -6.1810 H         1 <0>         0.0768
     74 H32       -11.8362   -6.8807   -6.6224 H         1 <0>         0.0997
     75 H33       -11.1597   -7.6240   -4.4623 H         1 <0>         0.4210
     76 H34        -9.0219   -5.0319   -5.7541 H         1 <0>         0.1579
     77 H35        -7.4525   -3.8608   -1.9405 H         1 <0>         0.1537
     78 H36       -10.4850   -6.8768   -2.1903 H         1 <0>         0.1494
     79 H37        -7.3191   -6.5855    0.2407 H         1 <0>         0.1429
     80 H38        -7.0152   -4.8466   -0.0374 H         1 <0>         0.1528
     81 H39        -9.6356   -6.7371    1.9865 H         1 <0>         0.1548
     82 H40       -11.0258   -5.5315   -0.1228 H         1 <0>         0.2447
     83 H41        -7.8138   -3.7616   -6.5043 H         1 <0>         0.4135
     84 H42        -6.6188   -0.2583   -5.4243 H         1 <0>         0.3680
     85 H43        -4.1345    0.3787   -4.4840 H         1 <0>         0.4308
     86 H44       -10.1319   -5.0450    2.2955 H         1 <0>         0.1734
@<TRIPOS>BOND
     1    1    2 1
     2    1   45 1
     3    1   46 1
     4    1   47 1
     5    2    3 1
     6    2    4 1
     7    2   48 1
     8    3   49 1
     9    3   50 1
    10    3   51 1
    11    4    9 ar
    12    4    5 ar
    13    5    6 ar
    14    5   52 1
    15    6    7 ar
    16    6   53 1
    17    7    8 ar
    18    7   54 1
    19    8    9 ar
    20    8   10 1
    21    9   55 1
    22   10   11 1
    23   10   56 1
    24   10   57 1
    25   11   12 1
    26   11   58 1
    27   11   85 1
    28   12   13 1
    29   12   59 1
    30   12   60 1
    31   13   14 1
    32   13   15 1
    33   13   44 1
    34   15   16 1
    35   15   43 1
    36   15   17 1
    37   17   18 1
    38   17   61 1
    39   17   62 1
    40   18   23 ar
    41   18   19 ar
    42   19   20 ar
    43   19   63 1
    44   20   21 ar
    45   20   64 1
    46   21   22 ar
    47   21   65 1
    48   22   23 ar
    49   22   24 1
    50   23   66 1
    51   24   25 1
    52   25   26 1
    53   25   67 1
    54   25   68 1
    55   26   27 1
    56   26   69 1
    57   26   70 1
    58   27   28 1
    59   27   71 1
    60   27   72 1
    61   28   29 1
    62   28   73 1
    63   28   74 1
    64   29   30 1
    65   29   75 1
    66   30   35 ar
    67   30   31 ar
    68   31   32 ar
    69   31   76 1
    70   32   33 ar
    71   32   41 1
    72   33   34 ar
    73   33   77 1
    74   34   35 ar
    75   34   36 1
    76   35   78 1
    77   36   40 2
    78   36   37 1
    79   37   38 1
    80   37   79 1
    81   37   80 1
    82   38   39 1
    83   39   40 1
    84   39   81 1
    85   39   86 1
    86   40   82 1
    87   41   42 2
    88   41   43 am
    89   43   83 1
    90   44   84 1
@<TRIPOS>MOLECULE
CHEMBL566968
   56    61     0     0     0
SMALL
USER_CHARGES

@<TRIPOS>ATOM
      1 C1          1.5287    1.5563    0.3426 C.ar      1 <0>        -0.1055
      2 C2          0.2224    1.9662    0.1665 C.ar      1 <0>        -0.0785
      3 C3         -0.7746    1.0231   -0.0734 C.ar      1 <0>        -0.0337
      4 C4         -0.4466   -0.3301   -0.1342 C.ar      1 <0>        -0.1001
      5 C5          0.8626   -0.7287    0.0433 C.ar      1 <0>        -0.0918
      6 C6          1.8486    0.2121    0.2813 C.ar      1 <0>        -0.0645
      7 C7          1.2188   -2.1915   -0.0217 C.3       1 <0>         0.2218
      8 C8          0.3752   -2.9842    0.9407 C.cat     1 <0>         0.5009
      9 N1         -0.8992   -3.1351    0.9980 N.pl3     1 <0>        -0.5618
     10 C9         -1.4768   -3.9570    2.0688 C.3       1 <0>         0.0554
     11 C10        -0.5091   -5.0734    2.4645 C.3       1 <0>        -0.1634
     12 C11         0.8344   -4.4659    2.8955 C.3       1 <0>         0.0852
     13 N2          1.2745   -3.5720    1.8128 N.pl3     1 <0>        -0.5402
     14 C12         2.5469   -3.1944    1.4897 C.2       1 <0>         0.6035
     15 N3          2.5963   -2.4103    0.4545 N.2       1 <0>        -0.5336
     16 N4          3.6593   -3.6012    2.1874 N.pl3     1 <0>        -0.8069
     17 C13         1.0555   -2.7125   -1.4263 C.ar      1 <0>        -0.0985
     18 C14        -0.2092   -2.8582   -1.9656 C.ar      1 <0>        -0.1145
     19 C15        -0.3630   -3.3369   -3.2529 C.ar      1 <0>        -0.0991
     20 C16         0.7515   -3.6721   -4.0074 C.ar      1 <0>         0.0761
     21 C17         2.0228   -3.5232   -3.4663 C.ar      1 <0>         0.0604
     22 C18         2.1704   -3.0383   -2.1752 C.ar      1 <0>        -0.0652
     23 O1          3.1301   -3.8388   -4.1921 O.3       1 <0>        -0.2997
     24 C19         2.9305   -4.6650   -5.3443 C.3       1 <0>         0.0188
     25 C20         1.7312   -4.1150   -6.1282 C.3       1 <0>         0.0173
     26 O2          0.5839   -4.1461   -5.2723 O.3       1 <0>        -0.3000
     27 C21        -2.1805    1.4576   -0.2629 C.ar      1 <0>        -0.1346
     28 C22        -2.7825    2.3300    0.6464 C.ar      1 <0>        -0.0329
     29 C23        -4.0969    2.7058    0.4253 C.ar      1 <0>        -0.1760
     30 C24        -4.7666    2.2108   -0.6781 C.ar      1 <0>         0.1465
     31 N5         -4.1738    1.3873   -1.5213 N.ar      1 <0>        -0.5067
     32 C25        -2.9217    1.0056   -1.3565 C.ar      1 <0>         0.3170
     33 F1         -2.3539    0.1660   -2.2497 F         1 <0>        -0.1064
     34 H1          2.3031    2.2868    0.5242 H         1 <0>         0.1416
     35 H2         -0.0263    3.0161    0.2150 H         1 <0>         0.1373
     36 H3         -1.2156   -1.0654   -0.3196 H         1 <0>         0.1074
     37 H4          2.8719   -0.1042    0.4193 H         1 <0>         0.1471
     38 H5         -1.6773   -3.3292    2.9370 H         1 <0>         0.1229
     39 H6         -2.4118   -4.3966    1.7215 H         1 <0>         0.1391
     40 H7         -0.9316   -5.6431    3.2921 H         1 <0>         0.1407
     41 H8         -0.3513   -5.7352    1.6128 H         1 <0>         0.1003
     42 H9          0.7064   -3.8979    3.8170 H         1 <0>         0.1154
     43 H10         1.5688   -5.2574    3.0450 H         1 <0>         0.1261
     44 H11         3.5634   -4.1878    2.9540 H         1 <0>         0.4192
     45 H12         4.5402   -3.3018    1.9130 H         1 <0>         0.4406
     46 H13        -1.0783   -2.5979   -1.3798 H         1 <0>         0.1119
     47 H14        -1.3520   -3.4504   -3.6716 H         1 <0>         0.1477
     48 H15         3.1573   -2.9194   -1.7531 H         1 <0>         0.1553
     49 H16         3.8215   -4.6421   -5.9717 H         1 <0>         0.1318
     50 H17         2.7267   -5.6890   -5.0314 H         1 <0>         0.0827
     51 H18         1.9325   -3.0889   -6.4359 H         1 <0>         0.0858
     52 H19         1.5512   -4.7343   -7.0069 H         1 <0>         0.1318
     53 H20        -2.2368    2.7020    1.5009 H         1 <0>         0.1498
     54 H21        -4.5940    3.3787    1.1083 H         1 <0>         0.1532
     55 H22        -5.7917    2.5026   -0.8524 H         1 <0>         0.1751
     56 H23        -1.4734   -2.7107    0.3414 H         1 <0>         0.4479
@<TRIPOS>BOND
     1    1    6 ar
     2    1    2 ar
     3    1   34 1
     4    2    3 ar
     5    2   35 1
     6    3    4 ar
     7    3   27 1
     8    4    5 ar
     9    4   36 1
    10    5    6 ar
    11    5    7 1
    12    6   37 1
    13    7   15 1
    14    7    8 1
    15    7   17 1
    16    8   13 1
    17    8    9 2
    18    9   10 1
    19    9   56 1
    20   10   11 1
    21   10   38 1
    22   10   39 1
    23   11   12 1
    24   11   40 1
    25   11   41 1
    26   12   13 1
    27   12   42 1
    28   12   43 1
    29   13   14 1
    30   14   15 2
    31   14   16 1
    32   16   44 1
    33   16   45 1
    34   17   22 ar
    35   17   18 ar
    36   18   19 ar
    37   18   46 1
    38   19   20 ar
    39   19   47 1
    40   20   26 1
    41   20   21 ar
    42   21   22 ar
    43   21   23 1
    44   22   48 1
    45   23   24 1
    46   24   25 1
    47   24   49 1
    48   24   50 1
    49   25   26 1
    50   25   51 1
    51   25   52 1
    52   27   32 ar
    53   27   28 ar
    54   28   29 ar
    55   28   53 1
    56   29   30 ar
    57   29   54 1
    58   30   31 ar
    59   30   55 1
    60   31   32 ar
    61   32   33 1
@<TRIPOS>MOLECULE
CHEMBL566968__1
   56    61     0     0     0
SMALL
USER_CHARGES

@<TRIPOS>ATOM
      1 C1         -1.5223    0.3979    0.2144 C.ar      1 <0>        -0.1016
      2 C2         -0.8298    1.5659   -0.0340 C.ar      1 <0>        -0.0800
      3 C3          0.5406    1.5210   -0.2812 C.ar      1 <0>        -0.0344
      4 C4          1.2046    0.2956   -0.2763 C.ar      1 <0>        -0.0512
      5 C5          0.5023   -0.8657   -0.0269 C.ar      1 <0>        -0.0910
      6 C6         -0.8583   -0.8153    0.2180 C.ar      1 <0>        -0.1170
      7 C7          1.2188   -2.1915   -0.0217 C.3       1 <0>         0.2214
      8 C8          0.5116   -3.1780   -0.9123 C.cat     1 <0>         0.5013
      9 N1         -0.6757   -3.6623   -0.8364 N.pl3     1 <0>        -0.5611
     10 C9         -1.1164   -4.6414   -1.8379 C.3       1 <0>         0.0561
     11 C10        -0.4333   -4.3748   -3.1801 C.3       1 <0>        -0.1631
     12 C11         1.0920   -4.4127   -3.0018 C.3       1 <0>         0.0848
     13 N2          1.4243   -3.4908   -1.9042 N.pl3     1 <0>        -0.5399
     14 C12         2.5949   -2.8222   -1.6838 C.2       1 <0>         0.6026
     15 N3          2.5541   -2.0605   -0.6316 N.2       1 <0>        -0.5337
     16 N4          3.7012   -2.9429   -2.4908 N.pl3     1 <0>        -0.8071
     17 C13         1.3288   -2.7264    1.3829 C.ar      1 <0>        -0.0982
     18 C14         0.1876   -3.0845    2.0763 C.ar      1 <0>        -0.1163
     19 C15         0.2843   -3.5741    3.3650 C.ar      1 <0>        -0.1025
     20 C16         1.5272   -3.7078    3.9661 C.ar      1 <0>         0.0757
     21 C17         2.6745   -3.3502    3.2682 C.ar      1 <0>         0.0609
     22 C18         2.5707   -2.8634    1.9735 C.ar      1 <0>        -0.0659
     23 O1          3.9044   -3.4808    3.8363 O.3       1 <0>        -0.3001
     24 C19         3.9436   -3.6247    5.2602 C.3       1 <0>         0.0180
     25 C20         2.8872   -4.6605    5.6679 C.3       1 <0>         0.0181
     26 O2          1.6062   -4.1876    5.2373 O.3       1 <0>        -0.2999
     27 C21         1.2902    2.7729   -0.5493 C.ar      1 <0>        -0.1354
     28 C22         0.8276    3.6882   -1.4973 C.ar      1 <0>        -0.0327
     29 C23         1.5631    4.8419   -1.7110 C.ar      1 <0>        -0.1789
     30 C24         2.7218    5.0505   -0.9865 C.ar      1 <0>         0.1475
     31 N5          3.1365    4.1688   -0.0969 N.ar      1 <0>        -0.5080
     32 C25         2.4668    3.0583    0.1461 C.ar      1 <0>         0.3248
     33 F1          2.9264    2.1875    1.0712 F         1 <0>        -0.1038
     34 H1         -2.5838    0.4320    0.4106 H         1 <0>         0.1406
     35 H2         -1.3494    2.5127   -0.0369 H         1 <0>         0.1377
     36 H3          2.2668    0.2551   -0.4677 H         1 <0>         0.1455
     37 H4         -1.4040   -1.7267    0.4131 H         1 <0>         0.1085
     38 H5         -0.8624   -5.6451   -1.4971 H         1 <0>         0.1229
     39 H6         -2.1968   -4.5685   -1.9624 H         1 <0>         0.1392
     40 H7         -0.7336   -5.1383   -3.8978 H         1 <0>         0.1403
     41 H8         -0.7309   -3.3936   -3.5499 H         1 <0>         0.0997
     42 H9          1.4110   -5.4234   -2.7471 H         1 <0>         0.1153
     43 H10         1.5813   -4.0882   -3.9202 H         1 <0>         0.1257
     44 H11         3.6758   -3.5274   -3.2645 H         1 <0>         0.4192
     45 H12         4.5074   -2.4436   -2.2865 H         1 <0>         0.4407
     46 H13        -0.7811   -2.9810    1.6102 H         1 <0>         0.1178
     47 H14        -0.6087   -3.8525    3.9047 H         1 <0>         0.1476
     48 H15         3.4609   -2.5871    1.4281 H         1 <0>         0.1546
     49 H16         4.9317   -3.9667    5.5680 H         1 <0>         0.1317
     50 H17         3.7217   -2.6678    5.7327 H         1 <0>         0.0855
     51 H18         3.1057   -5.6158    5.1908 H         1 <0>         0.0835
     52 H19         2.8894   -4.7810    6.7513 H         1 <0>         0.1320
     53 H20        -0.0810    3.5007   -2.0502 H         1 <0>         0.1480
     54 H21         1.2350    5.5712   -2.4368 H         1 <0>         0.1522
     55 H22         3.2970    5.9495   -1.1516 H         1 <0>         0.1744
     56 H23        -1.2742   -3.3847   -0.1253 H         1 <0>         0.4485
@<TRIPOS>BOND
     1    1    6 ar
     2    1    2 ar
     3    1   34 1
     4    2    3 ar
     5    2   35 1
     6    3    4 ar
     7    3   27 1
     8    4    5 ar
     9    4   36 1
    10    5    6 ar
    11    5    7 1
    12    6   37 1
    13    7   15 1
    14    7    8 1
    15    7   17 1
    16    8   13 1
    17    8    9 2
    18    9   10 1
    19    9   56 1
    20   10   11 1
    21   10   38 1
    22   10   39 1
    23   11   12 1
    24   11   40 1
    25   11   41 1
    26   12   13 1
    27   12   42 1
    28   12   43 1
    29   13   14 1
    30   14   15 2
    31   14   16 1
    32   16   44 1
    33   16   45 1
    34   17   22 ar
    35   17   18 ar
    36   18   19 ar
    37   18   46 1
    38   19   20 ar
    39   19   47 1
    40   20   26 1
    41   20   21 ar
    42   21   22 ar
    43   21   23 1
    44   22   48 1
    45   23   24 1
    46   24   25 1
    47   24   49 1
    48   24   50 1
    49   25   26 1
    50   25   51 1
    51   25   52 1
    52   27   32 ar
    53   27   28 ar
    54   28   29 ar
    55   28   53 1
    56   29   30 ar
    57   29   54 1
    58   30   31 ar
    59   30   55 1
    60   31   32 ar
    61   32   33 1
@<TRIPOS>MOLECULE
CHEMBL230245
   72    74     0     0     0
SMALL
USER_CHARGES

@<TRIPOS>ATOM
      1 C1         -0.0187    1.5258    0.0104 C.3       1 <0>        -0.1287
      2 C2          0.0021   -0.0041    0.0020 C.3       1 <0>        -0.1371
      3 H1         -0.8825   -0.4839   -0.4168 H         1 <0>         0.1050
      4 C3          1.3509   -0.6911   -0.2209 C.3       1 <0>        -0.1692
      5 C4          0.7031   -0.7075    1.1659 C.3       1 <0>        -0.1733
      6 H2          1.1496   -0.0804    1.9376 H         1 <0>         0.1144
      7 C5          0.1092   -2.0309    1.6525 C.3       1 <0>         0.1603
      8 N1          0.8390   -2.4871    2.8380 N.pl3     1 <0>        -0.7122
      9 C6          0.4776   -3.6755    3.4622 C.ar      1 <0>         0.4509
     10 C7         -0.5737   -4.4270    2.9510 C.ar      1 <0>        -0.2464
     11 C8         -0.9282   -5.6194    3.5862 C.ar      1 <0>        -0.0277
     12 C9         -0.2053   -6.0084    4.7168 C.ar      1 <0>        -0.2065
     13 C10         0.8327   -5.2015    5.1656 C.ar      1 <0>         0.4325
     14 N2          1.1426   -4.0802    4.5330 N.ar      1 <0>        -0.5354
     15 N3          1.5588   -5.5788    6.2895 N.pl3     1 <0>        -0.9233
     16 C11         1.2275   -6.8205    6.9928 C.3       1 <0>         0.0745
     17 S1          2.7981   -4.6246    6.8334 S.o2      1 <0>         2.5941
     18 O1          3.6669   -5.5151    7.5201 O.2       1 <0>        -0.9447
     19 O2          3.2447   -3.9198    5.6832 O.2       1 <0>        -0.9017
     20 C12         2.0236   -3.4784    8.0069 C.3       1 <0>        -0.5855
     21 C13         3.0603   -2.4596    8.4844 C.3       1 <0>        -0.1431
     22 C14         0.8691   -2.7471    7.3189 C.3       1 <0>        -0.1304
     23 C15        -2.0431   -6.4505    3.0743 C.2       1 <0>         0.5755
     24 O3         -2.3385   -7.4851    3.6389 O.2       1 <0>        -0.5112
     25 N4         -2.7295   -6.0588    1.9826 N.am      1 <0>        -0.7174
     26 C16        -3.8317   -6.8805    1.4765 C.3       1 <0>         0.1371
     27 H3         -4.3533   -7.3443    2.3137 H         1 <0>         0.1285
     28 C17        -4.8068   -5.9994    0.6932 C.3       1 <0>        -0.1047
     29 C18        -5.4470   -5.0051    1.6273 C.ar      1 <0>        -0.1039
     30 C19        -6.6198   -5.3291    2.2834 C.ar      1 <0>        -0.1128
     31 C20        -7.2071   -4.4171    3.1403 C.ar      1 <0>        -0.1116
     32 C21        -6.6213   -3.1813    3.3415 C.ar      1 <0>        -0.1055
     33 C22        -5.4479   -2.8577    2.6862 C.ar      1 <0>        -0.1102
     34 C23        -4.8584   -3.7713    1.8326 C.ar      1 <0>        -0.1074
     35 C24        -3.2756   -7.9689    0.5561 C.3       1 <0>        -0.0235
     36 H4         -2.6506   -8.6494    1.1344 H         1 <0>         0.1639
     37 C25        -2.4386   -7.3230   -0.5498 C.3       1 <0>         0.0377
     38 F1         -1.9301   -8.3181   -1.3914 F         1 <0>        -0.1952
     39 N5         -4.3877   -8.7170   -0.0452 N.4       1 <0>        -0.6319
     40 H5          1.0039    1.9031    0.0027 H         1 <0>         0.0595
     41 H6         -0.5459    1.8868   -0.8726 H         1 <0>         0.0644
     42 H7         -0.5289    1.8773    0.9072 H         1 <0>         0.0620
     43 H8          1.3536   -1.6231   -0.7861 H         1 <0>         0.0959
     44 H9          2.2234   -0.0532   -0.3616 H         1 <0>         0.0998
     45 H10        -0.9411   -1.8865    1.9056 H         1 <0>         0.0684
     46 H11         0.1935   -2.7787    0.8639 H         1 <0>         0.0647
     47 H12         1.5744   -1.9599    3.1875 H         1 <0>         0.4152
     48 H13        -1.1096   -4.0934    2.0747 H         1 <0>         0.1314
     49 H14        -0.4503   -6.9237    5.2349 H         1 <0>         0.1514
     50 H15         1.8039   -7.6429    6.5690 H         1 <0>         0.0796
     51 H16         1.4689   -6.7147    8.0504 H         1 <0>         0.0904
     52 H17         0.1631   -7.0279    6.8821 H         1 <0>         0.0890
     53 H18         1.6420   -4.0365    8.8619 H         1 <0>         0.1336
     54 H19         3.4419   -1.9014    7.6295 H         1 <0>         0.0762
     55 H20         2.5949   -1.7709    9.1895 H         1 <0>         0.0859
     56 H21         3.8828   -2.9806    8.9746 H         1 <0>         0.0722
     57 H22         0.1305   -3.4729    6.9787 H         1 <0>         0.0591
     58 H23         0.4037   -2.0584    8.0240 H         1 <0>         0.0760
     59 H24         1.2507   -2.1889    6.4639 H         1 <0>         0.0798
     60 H25        -2.4936   -5.2329    1.5319 H         1 <0>         0.4122
     61 H26        -4.2668   -5.4668   -0.0897 H         1 <0>         0.0981
     62 H27        -5.5785   -6.6233    0.2422 H         1 <0>         0.0869
     63 H28        -7.0775   -6.2946    2.1261 H         1 <0>         0.1206
     64 H29        -8.1238   -4.6700    3.6523 H         1 <0>         0.1280
     65 H30        -7.0805   -2.4686    4.0105 H         1 <0>         0.1283
     66 H31        -4.9904   -1.8921    2.8432 H         1 <0>         0.1280
     67 H32        -3.9397   -3.5199    1.3234 H         1 <0>         0.1185
     68 H33        -3.0636   -6.6425   -1.1281 H         1 <0>         0.1076
     69 H34        -1.6134   -6.7679   -0.1037 H         1 <0>         0.1230
     70 H35        -4.0210   -9.4348   -0.6521 H         1 <0>         0.4446
     71 H36        -4.9397   -9.1430    0.6841 H         1 <0>         0.4434
     72 H37        -4.9663   -8.0871   -0.5805 H         1 <0>         0.4321
@<TRIPOS>BOND
     1    1    2 1
     2    1   40 1
     3    1   41 1
     4    1   42 1
     5    2    3 1
     6    2    5 1
     7    2    4 1
     8    4    5 1
     9    4   43 1
    10    4   44 1
    11    5    6 1
    12    5    7 1
    13    7    8 1
    14    7   45 1
    15    7   46 1
    16    8    9 1
    17    8   47 1
    18    9   14 ar
    19    9   10 ar
    20   10   11 ar
    21   10   48 1
    22   11   12 ar
    23   11   23 1
    24   12   13 ar
    25   12   49 1
    26   13   14 ar
    27   13   15 1
    28   15   16 1
    29   15   17 1
    30   16   50 1
    31   16   51 1
    32   16   52 1
    33   17   18 2
    34   17   19 2
    35   17   20 1
    36   20   21 1
    37   20   22 1
    38   20   53 1
    39   21   54 1
    40   21   55 1
    41   21   56 1
    42   22   57 1
    43   22   58 1
    44   22   59 1
    45   23   24 2
    46   23   25 am
    47   25   26 1
    48   25   60 1
    49   26   27 1
    50   26   28 1
    51   26   35 1
    52   28   29 1
    53   28   61 1
    54   28   62 1
    55   29   34 ar
    56   29   30 ar
    57   30   31 ar
    58   30   63 1
    59   31   32 ar
    60   31   64 1
    61   32   33 ar
    62   32   65 1
    63   33   34 ar
    64   33   66 1
    65   34   67 1
    66   35   36 1
    67   35   37 1
    68   35   39 1
    69   37   38 1
    70   37   68 1
    71   37   69 1
    72   39   70 1
    73   39   71 1
    74   39   72 1
@<TRIPOS>MOLECULE
CHEMBL230245__1
   71    73     0     0     0
SMALL
USER_CHARGES

@<TRIPOS>ATOM
      1 C1         -0.0187    1.5258    0.0104 C.3       1 <0>        -0.1261
      2 C2          0.0021   -0.0041    0.0020 C.3       1 <0>        -0.1401
      3 H1         -0.8825   -0.4839   -0.4168 H         1 <0>         0.1067
      4 C3          1.3509   -0.6911   -0.2209 C.3       1 <0>        -0.1702
      5 C4          0.7031   -0.7075    1.1659 C.3       1 <0>        -0.1694
      6 H2          1.1496   -0.0804    1.9376 H         1 <0>         0.1126
      7 C5          0.1092   -2.0309    1.6525 C.3       1 <0>         0.1589
      8 N1          0.8390   -2.4871    2.8380 N.pl3     1 <0>        -0.7156
      9 C6          0.4776   -3.6755    3.4622 C.ar      1 <0>         0.4453
     10 C7         -0.5737   -4.4270    2.9510 C.ar      1 <0>        -0.2430
     11 C8         -0.9282   -5.6194    3.5862 C.ar      1 <0>        -0.0164
     12 C9         -0.2053   -6.0084    4.7168 C.ar      1 <0>        -0.2062
     13 C10         0.8327   -5.2015    5.1656 C.ar      1 <0>         0.4208
     14 N2          1.1426   -4.0802    4.5330 N.ar      1 <0>        -0.5458
     15 N3          1.5588   -5.5788    6.2895 N.pl3     1 <0>        -0.9220
     16 C11         1.2275   -6.8205    6.9928 C.3       1 <0>         0.0732
     17 S1          2.7981   -4.6246    6.8334 S.o2      1 <0>         2.5983
     18 O1          3.6669   -5.5151    7.5201 O.2       1 <0>        -0.9460
     19 O2          3.2447   -3.9198    5.6832 O.2       1 <0>        -0.9064
     20 C12         2.0236   -3.4784    8.0069 C.3       1 <0>        -0.5883
     21 C13         1.3790   -4.2721    9.1450 C.3       1 <0>        -0.1451
     22 C14         3.0867   -2.5385    8.5789 C.3       1 <0>        -0.1419
     23 C15        -2.0431   -6.4505    3.0743 C.2       1 <0>         0.5556
     24 O3         -2.3385   -7.4851    3.6389 O.2       1 <0>        -0.4928
     25 N4         -2.7295   -6.0588    1.9826 N.am      1 <0>        -0.7184
     26 C16        -3.8317   -6.8805    1.4765 C.3       1 <0>         0.1610
     27 H3         -4.3533   -7.3443    2.3137 H         1 <0>         0.1062
     28 C17        -4.8068   -5.9994    0.6932 C.3       1 <0>        -0.0958
     29 C18        -5.4470   -5.0051    1.6273 C.ar      1 <0>        -0.0828
     30 C19        -6.6198   -5.3291    2.2834 C.ar      1 <0>        -0.1134
     31 C20        -7.2071   -4.4171    3.1403 C.ar      1 <0>        -0.1150
     32 C21        -6.6213   -3.1813    3.3415 C.ar      1 <0>        -0.1206
     33 C22        -5.4479   -2.8577    2.6862 C.ar      1 <0>        -0.1159
     34 C23        -4.8584   -3.7713    1.8326 C.ar      1 <0>        -0.1130
     35 C24        -3.2756   -7.9689    0.5561 C.3       1 <0>         0.0491
     36 H4         -2.7540   -7.5051   -0.2811 H         1 <0>         0.0474
     37 C25        -4.4268   -8.8271    0.0276 C.3       1 <0>         0.0652
     38 F1         -3.9183   -9.8222   -0.8140 F         1 <0>        -0.2141
     39 N5         -2.3394   -8.8150    1.3082 N.3       1 <0>        -0.8282
     40 H5          1.0039    1.9031    0.0027 H         1 <0>         0.0576
     41 H6         -0.5459    1.8868   -0.8726 H         1 <0>         0.0632
     42 H7         -0.5289    1.8773    0.9072 H         1 <0>         0.0611
     43 H8          1.3536   -1.6231   -0.7861 H         1 <0>         0.0968
     44 H9          2.2234   -0.0532   -0.3616 H         1 <0>         0.0977
     45 H10        -0.9411   -1.8865    1.9056 H         1 <0>         0.0689
     46 H11         0.1935   -2.7787    0.8639 H         1 <0>         0.0660
     47 H12         1.5744   -1.9599    3.1875 H         1 <0>         0.4115
     48 H13        -1.1096   -4.0934    2.0747 H         1 <0>         0.1324
     49 H14        -0.4503   -6.9237    5.2349 H         1 <0>         0.1516
     50 H15         1.8039   -7.6429    6.5690 H         1 <0>         0.0785
     51 H16         1.4689   -6.7147    8.0504 H         1 <0>         0.0890
     52 H17         0.1631   -7.0279    6.8821 H         1 <0>         0.0912
     53 H18         1.2600   -2.8939    7.4936 H         1 <0>         0.1365
     54 H19         0.9136   -3.5834    9.8502 H         1 <0>         0.0803
     55 H20         0.6216   -4.9417    8.7375 H         1 <0>         0.0687
     56 H21         2.1425   -4.8566    9.6583 H         1 <0>         0.0766
     57 H22         3.5459   -1.9730    7.7680 H         1 <0>         0.0732
     58 H23         2.6213   -1.8497    9.2840 H         1 <0>         0.0839
     59 H24         3.8503   -3.1230    9.0921 H         1 <0>         0.0725
     60 H25        -2.4936   -5.2329    1.5319 H         1 <0>         0.3980
     61 H26        -4.2668   -5.4668   -0.0897 H         1 <0>         0.0822
     62 H27        -5.5785   -6.6233    0.2422 H         1 <0>         0.0950
     63 H28        -7.0775   -6.2946    2.1261 H         1 <0>         0.1225
     64 H29        -8.1238   -4.6700    3.6523 H         1 <0>         0.1226
     65 H30        -7.0805   -2.4686    4.0105 H         1 <0>         0.1211
     66 H31        -4.9904   -1.8921    2.8432 H         1 <0>         0.1210
     67 H32        -3.9397   -3.5199    1.3234 H         1 <0>         0.1154
     68 H33        -4.9483   -9.2908    0.8648 H         1 <0>         0.0866
     69 H34        -5.1214   -8.1993   -0.5305 H         1 <0>         0.0815
     70 H35        -2.0074   -9.5801    0.7404 H         1 <0>         0.3446
     71 H36        -1.5695   -8.2710    1.6679 H         1 <0>         0.3447
@<TRIPOS>BOND
     1    1    2 1
     2    1   40 1
     3    1   41 1
     4    1   42 1
     5    2    3 1
     6    2    5 1
     7    2    4 1
     8    4    5 1
     9    4   43 1
    10    4   44 1
    11    5    6 1
    12    5    7 1
    13    7    8 1
    14    7   45 1
    15    7   46 1
    16    8    9 1
    17    8   47 1
    18    9   14 ar
    19    9   10 ar
    20   10   11 ar
    21   10   48 1
    22   11   12 ar
    23   11   23 1
    24   12   13 ar
    25   12   49 1
    26   13   14 ar
    27   13   15 1
    28   15   16 1
    29   15   17 1
    30   16   50 1
    31   16   51 1
    32   16   52 1
    33   17   18 2
    34   17   19 2
    35   17   20 1
    36   20   21 1
    37   20   22 1
    38   20   53 1
    39   21   54 1
    40   21   55 1
    41   21   56 1
    42   22   57 1
    43   22   58 1
    44   22   59 1
    45   23   24 2
    46   23   25 am
    47   25   26 1
    48   25   60 1
    49   26   27 1
    50   26   28 1
    51   26   35 1
    52   28   29 1
    53   28   61 1
    54   28   62 1
    55   29   34 ar
    56   29   30 ar
    57   30   31 ar
    58   30   63 1
    59   31   32 ar
    60   31   64 1
    61   32   33 ar
    62   32   65 1
    63   33   34 ar
    64   33   66 1
    65   34   67 1
    66   35   36 1
    67   35   37 1
    68   35   39 1
    69   37   38 1
    70   37   68 1
    71   37   69 1
    72   39   70 1
    73   39   71 1
@<TRIPOS>MOLECULE
CHEMBL448939
   80    84     0     0     0
SMALL
USER_CHARGES

@<TRIPOS>ATOM
      1 C1         -0.0187    1.5258    0.0104 C.3       1 <0>        -0.1738
      2 C2          0.0021   -0.0041    0.0020 C.3       1 <0>         0.1266
      3 N1          0.7106   -0.4894    1.1889 N.am      1 <0>        -0.5353
      4 C3          2.0792   -0.7382    1.2779 C.ar      1 <0>         0.0951
      5 C4          3.1225   -0.6252    0.3758 C.ar      1 <0>        -0.0666
      6 C5          4.4199   -0.9573    0.7687 C.ar      1 <0>        -0.1253
      7 C6          4.6640   -1.4032    2.0713 C.ar      1 <0>        -0.0363
      8 C7          3.6208   -1.5157    2.9716 C.ar      1 <0>         0.1532
      9 C8          2.3239   -1.1837    2.5789 C.ar      1 <0>         0.1308
     10 N2          1.1002   -1.1918    3.2383 N.am      1 <0>        -0.6346
     11 H1          0.9546   -1.4555    4.1603 H         1 <0>         0.4380
     12 C9          0.1525   -0.7660    2.3824 C.2       1 <0>         0.6835
     13 O1         -1.0297   -0.6509    2.6467 O.2       1 <0>        -0.5363
     14 N3          3.8657   -1.9630    4.2764 N.am      1 <0>        -0.5862
     15 C10         3.8312   -3.3709    4.6894 C.3       1 <0>         0.1025
     16 C11         4.5699   -3.4209    6.0452 C.3       1 <0>        -0.1314
     17 C12         4.3736   -1.9778    6.5647 C.3       1 <0>        -0.1539
     18 C13         4.1681   -1.1583    5.3098 C.2       1 <0>         0.5200
     19 O2          4.2603    0.0495    5.2460 O.2       1 <0>        -0.5114
     20 C14         5.5350   -0.8383   -0.1916 C.2       1 <0>         0.5720
     21 O3          6.6653   -1.1276    0.1504 O.2       1 <0>        -0.5000
     22 N4          5.3000   -0.4089   -1.4473 N.am      1 <0>        -0.7248
     23 C15         6.4064   -0.2908   -2.4002 C.3       1 <0>         0.1279
     24 H2          7.3073    0.0242   -1.8736 H         1 <0>         0.1112
     25 C16         6.6526   -1.6459   -3.0665 C.3       1 <0>        -0.1023
     26 C17         7.1214   -2.6365   -2.0320 C.ar      1 <0>        -0.0788
     27 C18         8.4714   -2.7746   -1.7691 C.ar      1 <0>        -0.1060
     28 C19         8.9014   -3.6832   -0.8202 C.ar      1 <0>        -0.1109
     29 C20         7.9813   -4.4535   -0.1339 C.ar      1 <0>        -0.1105
     30 C21         6.6312   -4.3148   -0.3962 C.ar      1 <0>        -0.1095
     31 C22         6.2009   -3.4031   -1.3420 C.ar      1 <0>        -0.1059
     32 C23         6.0513    0.7456   -3.4682 C.3       1 <0>         0.0744
     33 H3          5.7895    1.6880   -2.9872 H         1 <0>         0.1344
     34 C24         7.2532    0.9603   -4.3902 C.3       1 <0>        -0.0477
     35 N5          6.9547    2.0399   -5.3406 N.4       1 <0>        -0.5038
     36 C25         8.1088    2.2460   -6.2258 C.3       1 <0>         0.0473
     37 C26         7.8025    3.3536   -7.2008 C.ar      1 <0>        -0.1275
     38 C27         7.2095    3.0606   -8.4152 C.ar      1 <0>        -0.1327
     39 C28         6.9273    4.0744   -9.3118 C.ar      1 <0>        -0.0711
     40 C29         7.2377    5.3833   -8.9964 C.ar      1 <0>        -0.1760
     41 C30         7.8325    5.6798   -7.7789 C.ar      1 <0>         0.1379
     42 C31         8.1092    4.6612   -6.8783 C.ar      1 <0>        -0.1310
     43 O4          8.1387    6.9664   -7.4664 O.3       1 <0>        -0.3114
     44 C32         7.8201    7.9637   -8.4390 C.3       1 <0>         0.0217
     45 O5          4.9401    0.2775   -4.2353 O.3       1 <0>        -0.5495
     46 H4          1.0039    1.9031    0.0027 H         1 <0>         0.0597
     47 H5         -0.5459    1.8868   -0.8726 H         1 <0>         0.0795
     48 H6         -0.5289    1.8773    0.9072 H         1 <0>         0.0660
     49 H7         -1.0205   -0.3814    0.0098 H         1 <0>         0.0996
     50 H8          0.5123   -0.3556   -0.8948 H         1 <0>         0.0909
     51 H9          2.9332   -0.2810   -0.6302 H         1 <0>         0.1353
     52 H10         5.6682   -1.6604    2.3743 H         1 <0>         0.1502
     53 H11         2.8001   -3.7037    4.8091 H         1 <0>         0.0760
     54 H12         4.3460   -3.9918    3.9562 H         1 <0>         0.0860
     55 H13         4.1053   -4.1435    6.7161 H         1 <0>         0.0980
     56 H14         5.6274   -3.6446    5.9052 H         1 <0>         0.0879
     57 H15         3.4971   -1.9205    7.2101 H         1 <0>         0.1107
     58 H16         5.2628   -1.6395    7.0965 H         1 <0>         0.1093
     59 H17         4.3982   -0.1781   -1.7202 H         1 <0>         0.4052
     60 H18         5.7267   -2.0025   -3.5176 H         1 <0>         0.0824
     61 H19         7.4149   -1.5383   -3.8381 H         1 <0>         0.0800
     62 H20         9.1903   -2.1728   -2.3053 H         1 <0>         0.1122
     63 H21         9.9563   -3.7916   -0.6153 H         1 <0>         0.1194
     64 H22         8.3173   -5.1639    0.6069 H         1 <0>         0.1197
     65 H23         5.9123   -4.9168    0.1397 H         1 <0>         0.1175
     66 H24         5.1458   -3.2920   -1.5443 H         1 <0>         0.1108
     67 H25         8.1245    1.2315   -3.7941 H         1 <0>         0.1490
     68 H26         7.4597    0.0408   -4.9380 H         1 <0>         0.1426
     69 H27         6.1482    1.7888   -5.8924 H         1 <0>         0.4325
     70 H28         8.9801    2.5173   -5.6297 H         1 <0>         0.1411
     71 H29         8.3153    1.3266   -6.7736 H         1 <0>         0.1416
     72 H30         6.9668    2.0380   -8.6639 H         1 <0>         0.1337
     73 H31         6.4642    3.8430  -10.2596 H         1 <0>         0.1395
     74 H32         7.0177    6.1748   -9.6974 H         1 <0>         0.1409
     75 H33         8.5679    4.8900   -5.9277 H         1 <0>         0.1399
     76 H34         8.1157    8.9438   -8.0646 H         1 <0>         0.1111
     77 H35         8.3547    7.7521   -9.3650 H         1 <0>         0.0627
     78 H36         6.7468    7.9560   -8.6291 H         1 <0>         0.0621
     79 H37         5.1022   -0.5591   -4.6923 H         1 <0>         0.3915
     80 H38         6.7636    2.8910   -4.8335 H         1 <0>         0.4296
@<TRIPOS>BOND
     1    1    2 1
     2    1   46 1
     3    1   47 1
     4    1   48 1
     5    2    3 1
     6    2   49 1
     7    2   50 1
     8    3   12 am
     9    3    4 1
    10    4    9 ar
    11    4    5 ar
    12    5    6 ar
    13    5   51 1
    14    6    7 ar
    15    6   20 1
    16    7    8 ar
    17    7   52 1
    18    8    9 ar
    19    8   14 1
    20    9   10 1
    21   10   11 1
    22   10   12 am
    23   12   13 2
    24   14   18 am
    25   14   15 1
    26   15   16 1
    27   15   53 1
    28   15   54 1
    29   16   17 1
    30   16   55 1
    31   16   56 1
    32   17   18 1
    33   17   57 1
    34   17   58 1
    35   18   19 2
    36   20   21 2
    37   20   22 am
    38   22   23 1
    39   22   59 1
    40   23   24 1
    41   23   25 1
    42   23   32 1
    43   25   26 1
    44   25   60 1
    45   25   61 1
    46   26   31 ar
    47   26   27 ar
    48   27   28 ar
    49   27   62 1
    50   28   29 ar
    51   28   63 1
    52   29   30 ar
    53   29   64 1
    54   30   31 ar
    55   30   65 1
    56   31   66 1
    57   32   33 1
    58   32   34 1
    59   32   45 1
    60   34   35 1
    61   34   67 1
    62   34   68 1
    63   35   36 1
    64   35   69 1
    65   35   80 1
    66   36   37 1
    67   36   70 1
    68   36   71 1
    69   37   42 ar
    70   37   38 ar
    71   38   39 ar
    72   38   72 1
    73   39   40 ar
    74   39   73 1
    75   40   41 ar
    76   40   74 1
    77   41   42 ar
    78   41   43 1
    79   42   75 1
    80   43   44 1
    81   44   76 1
    82   44   77 1
    83   44   78 1
    84   45   79 1
@<TRIPOS>MOLECULE
CHEMBL403727
   85    88     0     0     0
SMALL
USER_CHARGES

@<TRIPOS>ATOM
      1 C1          0.0686    0.3531   -2.7542 C.3       1 <0>        -0.1509
      2 C2          0.6509   -1.0603   -2.8191 C.3       1 <0>        -0.1386
      3 C3          0.9377   -1.5593   -1.4015 C.3       1 <0>         0.1138
      4 N1          1.4953   -2.9126   -1.4637 N.am      1 <0>        -0.6047
      5 C4          2.9445   -3.1040   -1.5608 C.3       1 <0>         0.0991
      6 C5          3.5898   -2.8100   -0.2050 C.3       1 <0>        -0.1470
      7 C6          5.0845   -3.1296   -0.2715 C.3       1 <0>        -0.1528
      8 C7          0.6751   -3.9815   -1.4315 C.2       1 <0>         0.5576
      9 O1         -0.5299   -3.8239   -1.4563 O.2       1 <0>        -0.5226
     10 C8          1.2410   -5.3460   -1.3661 C.ar      1 <0>        -0.1237
     11 C9          2.2331   -5.6483   -0.4301 C.ar      1 <0>        -0.0637
     12 C10         2.7625   -6.9217   -0.3678 C.ar      1 <0>        -0.0897
     13 C11         2.3162   -7.9047   -1.2289 C.ar      1 <0>        -0.0679
     14 C12         1.3252   -7.6159   -2.1698 C.ar      1 <0>        -0.1450
     15 C13         0.7821   -6.3343   -2.2339 C.ar      1 <0>        -0.0144
     16 C14         0.8491   -8.6693   -3.0917 C.2       1 <0>         0.5724
     17 O2          0.0598   -8.3935   -3.9739 O.2       1 <0>        -0.5179
     18 N2          1.2904   -9.9353   -2.9538 N.am      1 <0>        -0.7214
     19 C15         0.9104  -10.9544   -3.9352 C.3       1 <0>         0.1027
     20 H1         -0.0227  -10.6639   -4.4179 H         1 <0>         0.1036
     21 C16         2.0116  -11.0829   -4.9895 C.3       1 <0>        -0.1080
     22 C17         2.0958   -9.8064   -5.7861 C.ar      1 <0>        -0.0305
     23 C18         1.2434   -9.6017   -6.8545 C.ar      1 <0>        -0.1586
     24 C19         1.3202   -8.4293   -7.5874 C.ar      1 <0>         0.1451
     25 C20         2.2508   -7.4621   -7.2493 C.ar      1 <0>        -0.1870
     26 C21         3.1037   -7.6680   -6.1788 C.ar      1 <0>         0.1450
     27 C22         3.0216   -8.8389   -5.4441 C.ar      1 <0>        -0.1564
     28 F1          4.0125   -6.7248   -5.8476 F         1 <0>        -0.1242
     29 F2          0.4874   -8.2299   -8.6324 F         1 <0>        -0.1261
     30 C23         0.7220  -12.2981   -3.2281 C.3       1 <0>         0.0923
     31 H2          0.0015  -12.1846   -2.4181 H         1 <0>         0.1352
     32 C24         0.2051  -13.3332   -4.2292 C.3       1 <0>        -0.0117
     33 H3          0.9100  -13.4488   -5.0525 H         1 <0>         0.1560
     34 C25        -0.0303  -14.6931   -3.5258 C.3       1 <0>        -0.1243
     35 C26        -1.0831  -15.3496   -4.4573 C.3       1 <0>         0.0684
     36 H4         -0.5999  -15.8207   -5.3133 H         1 <0>         0.1166
     37 C27        -1.9440  -14.1508   -4.9081 C.3       1 <0>        -0.0374
     38 N3         -1.1236  -12.9352   -4.7413 N.4       1 <0>        -0.5065
     39 O3         -1.8714  -16.3001   -3.7380 O.3       1 <0>        -0.2872
     40 C28        -2.4311  -17.3080   -4.4575 C.ar      1 <0>         0.1036
     41 C29        -2.2968  -17.3338   -5.8381 C.ar      1 <0>        -0.2103
     42 C30        -2.8663  -18.3597   -6.5672 C.ar      1 <0>        -0.0784
     43 C31        -3.5700  -19.3600   -5.9222 C.ar      1 <0>        -0.1404
     44 C32        -3.7057  -19.3362   -4.5464 C.ar      1 <0>        -0.0742
     45 C33        -3.1328  -18.3158   -3.8122 C.ar      1 <0>        -0.1377
     46 O4          1.9735  -12.7352   -2.6945 O.3       1 <0>        -0.5198
     47 C34         3.8328   -7.2404    0.6442 C.3       1 <0>        -0.1197
     48 H5         -0.8577    0.3384   -2.1798 H         1 <0>         0.0579
     49 H6          0.7843    1.0192   -2.2725 H         1 <0>         0.0566
     50 H7         -0.1358    0.7086   -3.7642 H         1 <0>         0.0591
     51 H8         -0.0649   -1.7264   -3.3009 H         1 <0>         0.0663
     52 H9          1.5771   -1.0456   -3.3935 H         1 <0>         0.0623
     53 H10         1.6535   -0.8932   -0.9197 H         1 <0>         0.0818
     54 H11         0.0115   -1.5740   -0.8271 H         1 <0>         0.0858
     55 H12         3.1566   -4.1337   -1.8484 H         1 <0>         0.0859
     56 H13         3.3511   -2.4261   -2.3113 H         1 <0>         0.0811
     57 H14         3.4540   -1.7569    0.0413 H         1 <0>         0.0721
     58 H15         3.1203   -3.4259    0.5620 H         1 <0>         0.0674
     59 H16         5.5377   -2.5780   -1.0953 H         1 <0>         0.0600
     60 H17         5.5602   -2.8392    0.6653 H         1 <0>         0.0626
     61 H18         5.2206   -4.1991   -0.4319 H         1 <0>         0.0560
     62 H19         2.5868   -4.8840    0.2460 H         1 <0>         0.1440
     63 H20         2.7345   -8.8990   -1.1750 H         1 <0>         0.1297
     64 H21         0.0123   -6.1069   -2.9563 H         1 <0>         0.1421
     65 H22         1.8597  -10.1716   -2.2048 H         1 <0>         0.4127
     66 H23         2.9663  -11.2676   -4.4971 H         1 <0>         0.0997
     67 H24         1.7805  -11.9131   -5.6570 H         1 <0>         0.0894
     68 H25         0.5173  -10.3565   -7.1181 H         1 <0>         0.1327
     69 H26         2.3117   -6.5476   -7.8206 H         1 <0>         0.1521
     70 H27         3.6840   -8.9979   -4.6060 H         1 <0>         0.1398
     71 H28         0.8866  -15.2817   -3.4970 H         1 <0>         0.1320
     72 H29        -0.4320  -14.5495   -2.5227 H         1 <0>         0.1180
     73 H30        -2.2225  -14.2674   -5.9555 H         1 <0>         0.1448
     74 H31        -2.8389  -14.0835   -4.2895 H         1 <0>         0.1494
     75 H32        -1.5687  -12.3133   -4.0831 H         1 <0>         0.4347
     76 H33        -1.7478  -16.5524   -6.3424 H         1 <0>         0.1233
     77 H34        -2.7620  -18.3803   -7.6420 H         1 <0>         0.1308
     78 H35        -4.0148  -20.1610   -6.4940 H         1 <0>         0.1322
     79 H36        -4.2562  -20.1184   -4.0450 H         1 <0>         0.1379
     80 H37        -3.2353  -18.3001   -2.7372 H         1 <0>         0.1358
     81 H38         2.6639  -12.8575   -3.3605 H         1 <0>         0.3903
     82 H39         3.3682   -7.5845    1.5683 H         1 <0>         0.0783
     83 H40         4.4829   -8.0222    0.2515 H         1 <0>         0.0724
     84 H41         4.4213   -6.3452    0.8448 H         1 <0>         0.0743
     85 H42        -1.0193  -12.4690   -5.6300 H         1 <0>         0.4357
@<TRIPOS>BOND
     1    1    2 1
     2    1   48 1
     3    1   49 1
     4    1   50 1
     5    2    3 1
     6    2   51 1
     7    2   52 1
     8    3    4 1
     9    3   53 1
    10    3   54 1
    11    4    5 1
    12    4    8 am
    13    5    6 1
    14    5   55 1
    15    5   56 1
    16    6    7 1
    17    6   57 1
    18    6   58 1
    19    7   59 1
    20    7   60 1
    21    7   61 1
    22    8    9 2
    23    8   10 1
    24   10   15 ar
    25   10   11 ar
    26   11   12 ar
    27   11   62 1
    28   12   13 ar
    29   12   47 1
    30   13   14 ar
    31   13   63 1
    32   14   15 ar
    33   14   16 1
    34   15   64 1
    35   16   17 2
    36   16   18 am
    37   18   19 1
    38   18   65 1
    39   19   20 1
    40   19   21 1
    41   19   30 1
    42   21   22 1
    43   21   66 1
    44   21   67 1
    45   22   27 ar
    46   22   23 ar
    47   23   24 ar
    48   23   68 1
    49   24   25 ar
    50   24   29 1
    51   25   26 ar
    52   25   69 1
    53   26   27 ar
    54   26   28 1
    55   27   70 1
    56   30   31 1
    57   30   32 1
    58   30   46 1
    59   32   33 1
    60   32   38 1
    61   32   34 1
    62   34   35 1
    63   34   71 1
    64   34   72 1
    65   35   36 1
    66   35   37 1
    67   35   39 1
    68   37   38 1
    69   37   73 1
    70   37   74 1
    71   38   75 1
    72   38   85 1
    73   39   40 1
    74   40   45 ar
    75   40   41 ar
    76   41   42 ar
    77   41   76 1
    78   42   43 ar
    79   42   77 1
    80   43   44 ar
    81   43   78 1
    82   44   45 ar
    83   44   79 1
    84   45   80 1
    85   46   81 1
    86   47   82 1
    87   47   83 1
    88   47   84 1
@<TRIPOS>MOLECULE
CHEMBL403727__1
   84    87     0     0     0
SMALL
USER_CHARGES

@<TRIPOS>ATOM
      1 C1          0.0683    0.3528   -2.7543 C.3       1 <0>        -0.1495
      2 C2          0.6507   -1.0605   -2.8192 C.3       1 <0>        -0.1399
      3 C3          0.9375   -1.5595   -1.4016 C.3       1 <0>         0.1153
      4 N1          1.4951   -2.9128   -1.4637 N.am      1 <0>        -0.6069
      5 C4          2.9443   -3.1042   -1.5608 C.3       1 <0>         0.0996
      6 C5          3.5896   -2.8102   -0.2050 C.3       1 <0>        -0.1461
      7 C6          5.0843   -3.1297   -0.2716 C.3       1 <0>        -0.1523
      8 C7          0.6749   -3.9817   -1.4316 C.2       1 <0>         0.5605
      9 O1         -0.5301   -3.8241   -1.4563 O.2       1 <0>        -0.5231
     10 C8          1.2409   -5.3462   -1.3662 C.ar      1 <0>        -0.1284
     11 C9          2.2329   -5.6485   -0.4301 C.ar      1 <0>        -0.0710
     12 C10         2.7624   -6.9219   -0.3678 C.ar      1 <0>        -0.0934
     13 C11         2.3161   -7.9049   -1.2289 C.ar      1 <0>        -0.0677
     14 C12         1.3251   -7.6161   -2.1698 C.ar      1 <0>        -0.1337
     15 C13         0.7820   -6.3345   -2.2339 C.ar      1 <0>        -0.0161
     16 C14         0.8491   -8.6695   -3.0917 C.2       1 <0>         0.5630
     17 O2          0.0597   -8.3938   -3.9740 O.2       1 <0>        -0.5172
     18 N2          1.2904   -9.9355   -2.9538 N.am      1 <0>        -0.7206
     19 C15         0.9104  -10.9547   -3.9352 C.3       1 <0>         0.1183
     20 H1         -0.0227  -10.6642   -4.4179 H         1 <0>         0.1198
     21 C16         2.0116  -11.0832   -4.9896 C.3       1 <0>        -0.1011
     22 C17         2.0958   -9.8066   -5.7861 C.ar      1 <0>        -0.0160
     23 C18         1.2434   -9.6019   -6.8545 C.ar      1 <0>        -0.1466
     24 C19         1.3202   -8.4296   -7.5875 C.ar      1 <0>         0.1391
     25 C20         2.2508   -7.4623   -7.2494 C.ar      1 <0>        -0.1947
     26 C21         3.1037   -7.6682   -6.1788 C.ar      1 <0>         0.1333
     27 C22         3.0216   -8.8391   -5.4441 C.ar      1 <0>        -0.1606
     28 F1          4.0125   -6.7250   -5.8477 F         1 <0>        -0.1322
     29 F2          0.4874   -8.2301   -8.6324 F         1 <0>        -0.1301
     30 C23         0.7220  -12.2984   -3.2281 C.3       1 <0>         0.0997
     31 H2          0.0015  -12.1848   -2.4182 H         1 <0>         0.1105
     32 C24         0.2051  -13.3334   -4.2293 C.3       1 <0>         0.0470
     33 H3          0.9100  -13.4490   -5.0526 H         1 <0>         0.1006
     34 C25        -0.0303  -14.6934   -3.5259 C.3       1 <0>        -0.1347
     35 C26        -1.0830  -15.3499   -4.4573 C.3       1 <0>         0.0620
     36 H4         -0.5998  -15.8210   -5.3133 H         1 <0>         0.0896
     37 C27        -1.9439  -14.1511   -4.9082 C.3       1 <0>         0.0260
     38 N3         -1.1235  -12.9355   -4.7413 N.3       1 <0>        -0.6646
     39 O3         -1.8713  -16.3004   -3.7381 O.3       1 <0>        -0.3037
     40 C28        -2.4310  -17.3083   -4.4576 C.ar      1 <0>         0.1268
     41 C29        -2.2966  -17.3342   -5.8382 C.ar      1 <0>        -0.2092
     42 C30        -2.8661  -18.3601   -6.5673 C.ar      1 <0>        -0.0794
     43 C31        -3.5698  -19.3603   -5.9223 C.ar      1 <0>        -0.1572
     44 C32        -3.7055  -19.3365   -4.5465 C.ar      1 <0>        -0.0800
     45 C33        -3.1327  -18.3161   -3.8123 C.ar      1 <0>        -0.1524
     46 O4          1.9736  -12.7354   -2.6945 O.3       1 <0>        -0.5495
     47 C34         3.8326   -7.2406    0.6442 C.3       1 <0>        -0.1167
     48 H5         -0.8579    0.3381   -2.1799 H         1 <0>         0.0572
     49 H6          0.7841    1.0190   -2.2725 H         1 <0>         0.0550
     50 H7         -0.1360    0.7083   -3.7642 H         1 <0>         0.0581
     51 H8         -0.0651   -1.7266   -3.3010 H         1 <0>         0.0677
     52 H9          1.5769   -1.0458   -3.3936 H         1 <0>         0.0622
     53 H10         1.6533   -0.8934   -0.9198 H         1 <0>         0.0793
     54 H11         0.0113   -1.5742   -0.8272 H         1 <0>         0.0844
     55 H12         3.1564   -4.1339   -1.8484 H         1 <0>         0.0884
     56 H13         3.3509   -2.4263   -2.3113 H         1 <0>         0.0790
     57 H14         3.4538   -1.7571    0.0412 H         1 <0>         0.0695
     58 H15         3.1201   -3.4261    0.5620 H         1 <0>         0.0681
     59 H16         5.2204   -4.1992   -0.4320 H         1 <0>         0.0575
     60 H17         5.5375   -2.5782   -1.0953 H         1 <0>         0.0588
     61 H18         5.5600   -2.8394    0.6652 H         1 <0>         0.0606
     62 H19         2.5866   -4.8842    0.2460 H         1 <0>         0.1402
     63 H20         2.7344   -8.8992   -1.1750 H         1 <0>         0.1308
     64 H21         0.0121   -6.1072   -2.9564 H         1 <0>         0.1420
     65 H22         1.8597  -10.1718   -2.2048 H         1 <0>         0.4041
     66 H23         2.9664  -11.2678   -4.4971 H         1 <0>         0.0842
     67 H24         1.7805  -11.9133   -5.6570 H         1 <0>         0.0985
     68 H25         0.5174  -10.3568   -7.1182 H         1 <0>         0.1435
     69 H26         2.3116   -6.5478   -7.8206 H         1 <0>         0.1456
     70 H27         3.6840   -8.9981   -4.6060 H         1 <0>         0.1355
     71 H28         0.8867  -15.2820   -3.4971 H         1 <0>         0.0891
     72 H29        -0.4319  -14.5498   -2.5228 H         1 <0>         0.0862
     73 H30        -2.2224  -14.2677   -5.9556 H         1 <0>         0.0868
     74 H31        -2.8388  -14.0838   -4.2896 H         1 <0>         0.0701
     75 H32        -1.5705  -12.2809   -4.1169 H         1 <0>         0.3459
     76 H33        -1.7476  -16.5527   -6.3425 H         1 <0>         0.1286
     77 H34        -2.7618  -18.3807   -7.6420 H         1 <0>         0.1255
     78 H35        -4.0146  -20.1613   -6.4941 H         1 <0>         0.1247
     79 H36        -4.2560  -20.1188   -4.0450 H         1 <0>         0.1300
     80 H37        -3.2352  -18.3004   -2.7373 H         1 <0>         0.1299
     81 H38         2.6639  -12.8577   -3.3605 H         1 <0>         0.3781
     82 H39         3.3680   -7.5846    1.5683 H         1 <0>         0.0758
     83 H40         4.4828   -8.0224    0.2515 H         1 <0>         0.0717
     84 H41         4.4211   -6.3453    0.8448 H         1 <0>         0.0710
@<TRIPOS>BOND
     1    1    2 1
     2    1   48 1
     3    1   49 1
     4    1   50 1
     5    2    3 1
     6    2   51 1
     7    2   52 1
     8    3    4 1
     9    3   53 1
    10    3   54 1
    11    4    5 1
    12    4    8 am
    13    5    6 1
    14    5   55 1
    15    5   56 1
    16    6    7 1
    17    6   57 1
    18    6   58 1
    19    7   59 1
    20    7   60 1
    21    7   61 1
    22    8    9 2
    23    8   10 1
    24   10   15 ar
    25   10   11 ar
    26   11   12 ar
    27   11   62 1
    28   12   13 ar
    29   12   47 1
    30   13   14 ar
    31   13   63 1
    32   14   15 ar
    33   14   16 1
    34   15   64 1
    35   16   17 2
    36   16   18 am
    37   18   19 1
    38   18   65 1
    39   19   20 1
    40   19   21 1
    41   19   30 1
    42   21   22 1
    43   21   66 1
    44   21   67 1
    45   22   27 ar
    46   22   23 ar
    47   23   24 ar
    48   23   68 1
    49   24   25 ar
    50   24   29 1
    51   25   26 ar
    52   25   69 1
    53   26   27 ar
    54   26   28 1
    55   27   70 1
    56   30   31 1
    57   30   32 1
    58   30   46 1
    59   32   33 1
    60   32   38 1
    61   32   34 1
    62   34   35 1
    63   34   71 1
    64   34   72 1
    65   35   36 1
    66   35   37 1
    67   35   39 1
    68   37   38 1
    69   37   73 1
    70   37   74 1
    71   38   75 1
    72   39   40 1
    73   40   45 ar
    74   40   41 ar
    75   41   42 ar
    76   41   76 1
    77   42   43 ar
    78   42   77 1
    79   43   44 ar
    80   43   78 1
    81   44   45 ar
    82   44   79 1
    83   45   80 1
    84   46   81 1
    85   47   82 1
    86   47   83 1
    87   47   84 1
@<TRIPOS>MOLECULE
CHEMBL601681
   79    82     0     0     0
SMALL
USER_CHARGES

@<TRIPOS>ATOM
      1 C1         -1.9450    1.0189    0.2821 C.3       1 <0>        -0.1108
      2 C2         -1.6341   -0.4532    0.1973 C.ar      1 <0>         0.1887
      3 C3         -1.3002   -1.0096   -1.0249 C.ar      1 <0>        -0.1753
      4 C4         -1.0442   -2.3752   -1.1034 C.ar      1 <0>        -0.0558
      5 C5         -1.1063   -3.1303    0.0730 C.ar      1 <0>        -0.2323
      6 C6         -1.4107   -2.4857    1.2679 C.ar      1 <0>         0.4097
      7 N1         -1.6792   -1.1905    1.2905 N.ar      1 <0>        -0.5196
      8 N2         -1.3672   -3.2317    2.4473 N.pl3     1 <0>        -0.7241
      9 C7         -0.8560   -4.6091    2.3533 C.3       1 <0>         0.0963
     10 C8         -1.7484   -5.5446    3.1852 C.3       1 <0>        -0.1353
     11 C9         -1.6017   -6.9763    2.6599 C.3       1 <0>        -0.1243
     12 C10        -0.4728   -7.0310    1.6289 C.3       1 <0>         0.0525
     13 O1         -0.5693   -8.2455    0.8894 O.3       1 <0>        -0.3299
     14 C11        -0.0714   -8.2644   -0.3707 C.ar      1 <0>         0.1227
     15 C12         0.9346   -9.1568   -0.7106 C.ar      1 <0>        -0.1306
     16 C13         1.4339   -9.1835   -1.9937 C.ar      1 <0>        -0.0876
     17 C14         0.9302   -8.3182   -2.9518 C.ar      1 <0>        -0.1311
     18 C15        -0.0776   -7.4274   -2.6184 C.ar      1 <0>        -0.0735
     19 C16        -0.5719   -7.3943   -1.3293 C.ar      1 <0>        -0.1631
     20 C17        -0.6470   -6.5093   -3.6693 C.3       1 <0>        -0.1035
     21 C18        -0.0938   -5.0919   -3.5009 C.3       1 <0>         0.1247
     22 H1          0.9667   -5.1411   -3.2538 H         1 <0>         0.0969
     23 N3         -0.8278   -4.4158   -2.4050 N.am      1 <0>        -0.7290
     24 C19        -0.6778   -3.0509   -2.3727 C.2       1 <0>         0.5882
     25 O2         -0.2671   -2.4292   -3.3325 O.2       1 <0>        -0.5082
     26 C20        -0.2806   -4.3112   -4.8033 C.3       1 <0>         0.0527
     27 H2          0.2096   -3.3413   -4.7190 H         1 <0>         0.1766
     28 C21         0.3380   -5.0962   -5.9617 C.3       1 <0>        -0.0573
     29 N4          0.2871   -4.2851   -7.1854 N.4       1 <0>        -0.5015
     30 C22         0.8810   -5.0388   -8.2976 C.3       1 <0>         0.0469
     31 C23         0.8287   -4.2067   -9.5530 C.ar      1 <0>        -0.1639
     32 C24        -0.2715   -4.2818  -10.3868 C.ar      1 <0>        -0.0976
     33 C25        -0.3194   -3.5186  -11.5381 C.ar      1 <0>        -0.1103
     34 C26         0.7327   -2.6797  -11.8557 C.ar      1 <0>        -0.0794
     35 C27         1.8322   -2.6040  -11.0217 C.ar      1 <0>        -0.0654
     36 C28         1.8782   -3.3642   -9.8678 C.ar      1 <0>        -0.0930
     37 C29         2.9791   -1.6899  -11.3681 C.3       1 <0>        -0.0618
     38 C30         3.5679   -2.1000  -12.7194 C.3       1 <0>        -0.1496
     39 C31         2.4756   -0.2474  -11.4478 C.3       1 <0>        -0.1489
     40 O3         -1.6754   -4.1202   -5.0484 O.3       1 <0>        -0.5362
     41 H3         -1.0272    1.5734    0.4781 H         1 <0>         0.0860
     42 H4         -2.3775    1.3538   -0.6607 H         1 <0>         0.0814
     43 H5         -2.6550    1.1944    1.0903 H         1 <0>         0.0831
     44 H6         -1.2393   -0.3910   -1.9081 H         1 <0>         0.1437
     45 H7         -0.9217   -4.1943    0.0538 H         1 <0>         0.1344
     46 H8         -1.6611   -2.8581    3.2928 H         1 <0>         0.4136
     47 H9         -0.8650   -4.9298    1.3115 H         1 <0>         0.0929
     48 H10         0.1641   -4.6450    2.7357 H         1 <0>         0.0710
     49 H11        -1.4414   -5.5067    4.2304 H         1 <0>         0.0801
     50 H12        -2.7881   -5.2291    3.0980 H         1 <0>         0.0812
     51 H13        -1.3692   -7.6450    3.4886 H         1 <0>         0.0832
     52 H14        -2.5355   -7.2889    2.1926 H         1 <0>         0.0798
     53 H15        -0.5593   -6.1832    0.9493 H         1 <0>         0.0651
     54 H16         0.4891   -6.9916    2.1401 H         1 <0>         0.0697
     55 H17         1.3281   -9.8330    0.0339 H         1 <0>         0.1346
     56 H18         2.2184   -9.8789   -2.2533 H         1 <0>         0.1339
     57 H19         1.3232   -8.3378   -3.9576 H         1 <0>         0.1243
     58 H20        -1.3483   -6.6910   -1.0669 H         1 <0>         0.1185
     59 H21        -0.3801   -6.8844   -4.6573 H         1 <0>         0.0900
     60 H22        -1.7327   -6.4851   -3.5756 H         1 <0>         0.0924
     61 H23        -1.3709   -4.8990   -1.7629 H         1 <0>         0.4170
     62 H24         1.3754   -5.3341   -5.7264 H         1 <0>         0.1429
     63 H25        -0.2209   -6.0195   -6.1143 H         1 <0>         0.1352
     64 H26        -0.6732   -4.0649   -7.4032 H         1 <0>         0.4316
     65 H27         1.9184   -5.2767   -8.0624 H         1 <0>         0.1370
     66 H28         0.3221   -5.9621   -8.4502 H         1 <0>         0.1365
     67 H29        -1.0933   -4.9371  -10.1387 H         1 <0>         0.1300
     68 H30        -1.1786   -3.5779  -12.1899 H         1 <0>         0.1357
     69 H31         0.6955   -2.0839  -12.7557 H         1 <0>         0.1341
     70 H32         2.7357   -3.3022   -9.2141 H         1 <0>         0.1302
     71 H33         3.7481   -1.7644  -10.5991 H         1 <0>         0.0815
     72 H34         2.7989   -2.0256  -13.4884 H         1 <0>         0.0595
     73 H35         4.3975   -1.4389  -12.9700 H         1 <0>         0.0665
     74 H36         3.9266   -3.1277  -12.6626 H         1 <0>         0.0576
     75 H37         2.0561    0.0448  -10.4851 H         1 <0>         0.0564
     76 H38         3.3052    0.4137  -11.6984 H         1 <0>         0.0665
     77 H39         1.7066   -0.1729  -12.2168 H         1 <0>         0.0595
     78 H40        -2.1758   -4.9432   -5.1348 H         1 <0>         0.3771
     79 H41         0.8044   -3.4304   -7.0442 H         1 <0>         0.4293
@<TRIPOS>BOND
     1    1    2 1
     2    1   41 1
     3    1   42 1
     4    1   43 1
     5    2    7 ar
     6    2    3 ar
     7    3    4 ar
     8    3   44 1
     9    4   24 1
    10    4    5 ar
    11    5    6 ar
    12    5   45 1
    13    6    7 ar
    14    6    8 1
    15    8    9 1
    16    8   46 1
    17    9   10 1
    18    9   47 1
    19    9   48 1
    20   10   11 1
    21   10   49 1
    22   10   50 1
    23   11   12 1
    24   11   51 1
    25   11   52 1
    26   12   13 1
    27   12   53 1
    28   12   54 1
    29   13   14 1
    30   14   19 ar
    31   14   15 ar
    32   15   16 ar
    33   15   55 1
    34   16   17 ar
    35   16   56 1
    36   17   18 ar
    37   17   57 1
    38   18   19 ar
    39   18   20 1
    40   19   58 1
    41   20   21 1
    42   20   59 1
    43   20   60 1
    44   21   22 1
    45   21   23 1
    46   21   26 1
    47   23   24 am
    48   23   61 1
    49   24   25 2
    50   26   27 1
    51   26   28 1
    52   26   40 1
    53   28   29 1
    54   28   62 1
    55   28   63 1
    56   29   30 1
    57   29   64 1
    58   29   79 1
    59   30   31 1
    60   30   65 1
    61   30   66 1
    62   31   36 ar
    63   31   32 ar
    64   32   33 ar
    65   32   67 1
    66   33   34 ar
    67   33   68 1
    68   34   35 ar
    69   34   69 1
    70   35   36 ar
    71   35   37 1
    72   36   70 1
    73   37   38 1
    74   37   39 1
    75   37   71 1
    76   38   72 1
    77   38   73 1
    78   38   74 1
    79   39   75 1
    80   39   76 1
    81   39   77 1
    82   40   78 1
@<TRIPOS>MOLECULE
CHEMBL583034
   75    77     0     0     0
SMALL
USER_CHARGES

@<TRIPOS>ATOM
      1 C1          4.9955   -3.5530    4.5434 C.3       1 <0>        -0.1827
      2 C2          4.0585   -3.2640    3.3990 C.2       1 <0>         0.5062
      3 O1          3.6555   -4.1706    2.7015 O.2       1 <0>        -0.5269
      4 N1          3.6684   -1.9980    3.1507 N.am      1 <0>        -0.7272
      5 C3          2.6704   -1.7294    2.1124 C.3       1 <0>         0.1273
      6 H1          2.4878   -0.6564    2.0529 H         1 <0>         0.0939
      7 C4          3.1885   -2.2341    0.7642 C.3       1 <0>        -0.1019
      8 C5          4.4043   -1.4390    0.3637 C.ar      1 <0>        -0.0232
      9 C6          4.2593   -0.2831   -0.3799 C.ar      1 <0>        -0.1652
     10 C7          5.3759    0.4481   -0.7489 C.ar      1 <0>         0.1388
     11 C8          6.6376    0.0212   -0.3724 C.ar      1 <0>        -0.1953
     12 C9          6.7816   -1.1364    0.3727 C.ar      1 <0>         0.1363
     13 C10         5.6632   -1.8632    0.7450 C.ar      1 <0>        -0.1592
     14 F1          8.0124   -1.5543    0.7410 F         1 <0>        -0.1279
     15 F2          5.2338    1.5775   -1.4766 F         1 <0>        -0.1266
     16 C11         1.3663   -2.4501    2.4599 C.3       1 <0>         0.0953
     17 H2          1.5294   -3.5276    2.4370 H         1 <0>         0.1297
     18 C12         0.9104   -2.0330    3.8596 C.3       1 <0>         0.0111
     19 N2         -0.3425   -2.7239    4.1926 N.3       1 <0>        -0.6806
     20 C13        -0.8751   -2.2570    5.4796 C.3       1 <0>         0.1470
     21 C14        -2.1136   -3.0786    5.8488 C.3       1 <0>        -0.1093
     22 C15        -1.7062   -4.5433    6.0326 C.3       1 <0>        -0.1161
     23 C16        -0.6121   -4.6328    7.0986 C.3       1 <0>         0.2038
     24 H3         -0.3198   -5.6744    7.2321 H         1 <0>         0.1357
     25 N3          0.5541   -3.8486    6.6750 N.4       1 <0>        -0.5077
     26 C17         0.1883   -2.4312    6.5661 C.3       1 <0>        -0.0030
     27 N4         -1.1226   -4.1014    8.3694 N.3       1 <0>        -0.5051
     28 O2         -1.6493   -5.1746    9.2127 O.3       1 <0>        -0.3890
     29 C18        -1.2498   -0.8014    5.3709 C.ar      1 <0>        -0.1196
     30 C19        -1.0988    0.0345    6.4617 C.ar      1 <0>        -0.1243
     31 C20        -1.4424    1.3696    6.3621 C.ar      1 <0>        -0.1047
     32 C21        -1.9367    1.8692    5.1714 C.ar      1 <0>        -0.1084
     33 C22        -2.0867    1.0337    4.0807 C.ar      1 <0>        -0.0502
     34 C23        -1.7390   -0.3008    4.1791 C.ar      1 <0>        -0.1063
     35 C24        -2.6259    1.5781    2.7830 C.3       1 <0>        -0.0326
     36 C25        -2.8091    3.0924    2.9022 C.3       1 <0>        -0.1499
     37 C26        -1.6414    1.2709    1.6528 C.3       1 <0>        -0.1411
     38 C27        -3.9745    0.9238    2.4765 C.3       1 <0>        -0.1408
     39 O3          0.3603   -2.1003    1.5072 O.3       1 <0>        -0.5439
     40 H4          5.1259   -4.6306    4.6429 H         1 <0>         0.0972
     41 H5          5.9613   -3.0865    4.3489 H         1 <0>         0.0958
     42 H6          4.5770   -3.1509    5.4660 H         1 <0>         0.0808
     43 H7          4.0485   -1.2648    3.6594 H         1 <0>         0.4060
     44 H8          3.4549   -3.2877    0.8487 H         1 <0>         0.1094
     45 H9          2.4116   -2.1153    0.0089 H         1 <0>         0.0975
     46 H10         3.2748    0.0499   -0.6736 H         1 <0>         0.1427
     47 H11         7.5090    0.5906   -0.6600 H         1 <0>         0.1508
     48 H12         5.7750   -2.7641    1.3301 H         1 <0>         0.1352
     49 H13         1.6773   -2.3008    4.5864 H         1 <0>         0.0728
     50 H14         0.7483   -0.9554    3.8828 H         1 <0>         0.0572
     51 H15        -1.0240   -2.6114    3.4571 H         1 <0>         0.3749
     52 H16        -2.5390   -2.6992    6.7779 H         1 <0>         0.0985
     53 H17        -2.8523   -3.0031    5.0508 H         1 <0>         0.0929
     54 H18        -2.5719   -5.1248    6.3499 H         1 <0>         0.1154
     55 H19        -1.3283   -4.9372    5.0892 H         1 <0>         0.1058
     56 H20         1.2930   -3.9529    7.3540 H         1 <0>         0.4237
     57 H21         1.0714   -1.8474    6.3064 H         1 <0>         0.1346
     58 H22        -0.2078   -2.0843    7.5204 H         1 <0>         0.1404
     59 H23        -0.4100   -3.5770    8.8544 H         1 <0>         0.3409
     60 H24        -1.9977   -4.8720   10.0625 H         1 <0>         0.4095
     61 H25        -0.7128   -0.3557    7.3918 H         1 <0>         0.1174
     62 H26        -1.3252    2.0224    7.2144 H         1 <0>         0.1277
     63 H27        -2.2058    2.9122    5.0937 H         1 <0>         0.1332
     64 H28        -1.8526   -0.9529    3.3257 H         1 <0>         0.1226
     65 H29        -1.8483    3.5586    3.1205 H         1 <0>         0.0593
     66 H30        -3.1990    3.4862    1.9636 H         1 <0>         0.0650
     67 H31        -3.5104    3.3113    3.7074 H         1 <0>         0.0608
     68 H32        -1.5794    0.1923    1.5082 H         1 <0>         0.0560
     69 H33        -1.9866    1.7416    0.7323 H         1 <0>         0.0667
     70 H34        -0.6569    1.6598    1.9128 H         1 <0>         0.0557
     71 H35        -4.6759    1.1427    3.2817 H         1 <0>         0.0580
     72 H36        -4.3645    1.3176    1.5379 H         1 <0>         0.0652
     73 H37        -3.8440   -0.1550    2.3916 H         1 <0>         0.0560
     74 H38         0.1630   -1.1543    1.4729 H         1 <0>         0.3725
     75 H39         0.8746   -4.1820    5.7782 H         1 <0>         0.4458
@<TRIPOS>BOND
     1    1    2 1
     2    1   40 1
     3    1   41 1
     4    1   42 1
     5    2    3 2
     6    2    4 am
     7    4    5 1
     8    4   43 1
     9    5    6 1
    10    5    7 1
    11    5   16 1
    12    7    8 1
    13    7   44 1
    14    7   45 1
    15    8   13 ar
    16    8    9 ar
    17    9   10 ar
    18    9   46 1
    19   10   11 ar
    20   10   15 1
    21   11   12 ar
    22   11   47 1
    23   12   13 ar
    24   12   14 1
    25   13   48 1
    26   16   17 1
    27   16   18 1
    28   16   39 1
    29   18   19 1
    30   18   49 1
    31   18   50 1
    32   19   20 1
    33   19   51 1
    34   20   26 1
    35   20   21 1
    36   20   29 1
    37   21   22 1
    38   21   52 1
    39   21   53 1
    40   22   23 1
    41   22   54 1
    42   22   55 1
    43   23   24 1
    44   23   25 1
    45   23   27 1
    46   25   26 1
    47   25   56 1
    48   25   75 1
    49   26   57 1
    50   26   58 1
    51   27   28 1
    52   27   59 1
    53   28   60 1
    54   29   34 ar
    55   29   30 ar
    56   30   31 ar
    57   30   61 1
    58   31   32 ar
    59   31   62 1
    60   32   33 ar
    61   32   63 1
    62   33   34 ar
    63   33   35 1
    64   34   64 1
    65   35   36 1
    66   35   37 1
    67   35   38 1
    68   36   65 1
    69   36   66 1
    70   36   67 1
    71   37   68 1
    72   37   69 1
    73   37   70 1
    74   38   71 1
    75   38   72 1
    76   38   73 1
    77   39   74 1
@<TRIPOS>MOLECULE
CHEMBL568942
   88    91     0     0     0
SMALL
USER_CHARGES

@<TRIPOS>ATOM
      1 C1          0.4996   -0.0727    2.2746 C.3       1 <0>        -0.1534
      2 C2          0.3508   -1.5909    2.1560 C.3       1 <0>        -0.1228
      3 C3         -1.1205   -1.9428    1.9275 C.3       1 <0>        -0.1304
      4 C4         -1.2693   -3.4609    1.8089 C.3       1 <0>         0.1346
      5 N1         -2.6781   -3.7979    1.5900 N.am      1 <0>        -0.7442
      6 C5         -3.0497   -5.0864    1.4550 C.2       1 <0>         0.7027
      7 O1         -2.2157   -5.9691    1.5149 O.2       1 <0>        -0.5817
      8 N2         -4.3458   -5.3964    1.2537 N.am      1 <0>        -0.7452
      9 C6         -4.7497   -6.7969    1.1070 C.3       1 <0>         0.1725
     10 C7         -6.2397   -6.8703    0.8938 C.ar      1 <0>        -0.0774
     11 C8         -7.0890   -6.9745    1.9795 C.ar      1 <0>        -0.0921
     12 C9         -8.4558   -7.0419    1.7839 C.ar      1 <0>        -0.0858
     13 C10        -8.9733   -7.0045    0.5027 C.ar      1 <0>        -0.1370
     14 C11        -8.1241   -6.8994   -0.5830 C.ar      1 <0>        -0.1060
     15 C12        -6.7576   -6.8278   -0.3872 C.ar      1 <0>        -0.0947
     16 C13       -10.4633   -7.0789    0.2894 C.3       1 <0>         0.1383
     17 N3        -11.0252   -5.7260    0.2924 N.am      1 <0>        -0.5485
     18 C14       -11.4658   -5.0882    1.3933 C.2       1 <0>         0.5388
     19 O2        -11.4691   -5.5172    2.5274 O.2       1 <0>        -0.4006
     20 C15       -11.9557   -3.7305    0.9374 C.3       1 <0>         0.1281
     21 N4        -11.7245   -3.7270   -0.5162 N.pl3     1 <0>        -0.6572
     22 C16       -11.1652   -4.9419   -0.8268 C.cat     1 <0>         0.7285
     23 N5        -10.8157   -5.3050   -2.0271 N.pl3     1 <0>        -0.7404
     24 C17       -11.1489   -2.6178    1.6097 C.3       1 <0>        -0.1248
     25 C18        -9.6904   -2.6991    1.1546 C.3       1 <0>        -0.1215
     26 C19        -8.8837   -1.5864    1.8268 C.3       1 <0>        -0.0849
     27 C20        -9.3850   -0.2261    1.3377 C.3       1 <0>        -0.1145
     28 C21        -8.5783    0.8866    2.0099 C.3       1 <0>        -0.1230
     29 C22        -7.0986    0.7302    1.6537 C.3       1 <0>        -0.1218
     30 C23        -6.5972   -0.6300    2.1428 C.3       1 <0>        -0.1212
     31 C24        -7.4040   -1.7427    1.4706 C.3       1 <0>        -0.1108
     32 C25       -13.4465   -3.5703    1.2419 C.3       1 <0>        -0.1176
     33 C26       -14.2231   -4.7280    0.6115 C.3       1 <0>        -0.0957
     34 C27       -14.2196   -4.5754   -0.9108 C.3       1 <0>        -0.1279
     35 C28       -14.9962   -5.7332   -1.5412 C.3       1 <0>        -0.1208
     36 C29       -16.4384   -5.7179   -1.0304 C.3       1 <0>        -0.1231
     37 C30       -16.4418   -5.8706    0.4919 C.3       1 <0>        -0.1225
     38 C31       -15.6652   -4.7128    1.1223 C.3       1 <0>        -0.1134
     39 H1          1.5478    0.1780    2.4374 H         1 <0>         0.0586
     40 H2          0.1516    0.3993    1.3559 H         1 <0>         0.0541
     41 H3         -0.0946    0.2860    3.1151 H         1 <0>         0.0544
     42 H4          0.9450   -1.9496    1.3156 H         1 <0>         0.0667
     43 H5          0.6988   -2.0629    3.0748 H         1 <0>         0.0669
     44 H6         -1.7147   -1.5841    2.7679 H         1 <0>         0.0684
     45 H7         -1.4686   -1.4707    1.0087 H         1 <0>         0.0679
     46 H8         -0.6751   -3.8197    0.9684 H         1 <0>         0.0685
     47 H9         -0.9213   -3.9330    2.7276 H         1 <0>         0.0688
     48 H10        -3.3435   -3.0937    1.5423 H         1 <0>         0.3944
     49 H11        -5.0112   -4.6922    1.2060 H         1 <0>         0.3938
     50 H12        -4.2380   -7.2348    0.2499 H         1 <0>         0.0813
     51 H13        -4.4842   -7.3481    2.0091 H         1 <0>         0.0818
     52 H14        -6.6847   -7.0037    2.9805 H         1 <0>         0.1355
     53 H15        -9.1193   -7.1240    2.6321 H         1 <0>         0.1335
     54 H16        -8.5285   -6.8706   -1.5841 H         1 <0>         0.1180
     55 H17        -6.0943   -6.7419   -1.2352 H         1 <0>         0.1344
     56 H18       -10.6699   -7.5560   -0.6686 H         1 <0>         0.1120
     57 H19       -10.9164   -7.6623    1.0910 H         1 <0>         0.1336
     58 H20       -11.9246   -3.0060   -1.1335 H         1 <0>         0.4618
     59 H21       -10.4275   -6.1815   -2.1750 H         1 <0>         0.4446
     60 H22       -11.5632   -1.6490    1.3303 H         1 <0>         0.1055
     61 H23       -11.1990   -2.7358    2.6921 H         1 <0>         0.1084
     62 H24        -9.2762   -3.6678    1.4340 H         1 <0>         0.0608
     63 H25        -9.6404   -2.5810    0.0722 H         1 <0>         0.0632
     64 H26        -9.0059   -1.6513    2.9080 H         1 <0>         0.0771
     65 H27        -9.2628   -0.1612    0.2565 H         1 <0>         0.0606
     66 H28       -10.4392   -0.1147    1.5915 H         1 <0>         0.0629
     67 H29        -8.9354    1.8557    1.6615 H         1 <0>         0.0649
     68 H30        -8.7005    0.8217    3.0911 H         1 <0>         0.0640
     69 H31        -6.9763    0.7952    0.5725 H         1 <0>         0.0607
     70 H32        -6.5238    1.5230    2.1326 H         1 <0>         0.0649
     71 H33        -5.5430   -0.7414    1.8890 H         1 <0>         0.0633
     72 H34        -6.7194   -0.6950    3.2240 H         1 <0>         0.0639
     73 H35        -7.0468   -2.7118    1.8190 H         1 <0>         0.0577
     74 H36        -7.2817   -1.6778    0.3894 H         1 <0>         0.0599
     75 H37       -13.5995   -3.5751    2.3211 H         1 <0>         0.1104
     76 H38       -13.8024   -2.6265    0.8288 H         1 <0>         0.1039
     77 H39       -13.7514   -5.6724    0.8831 H         1 <0>         0.0654
     78 H40       -14.6913   -3.6310   -1.1824 H         1 <0>         0.0758
     79 H41       -13.1922   -4.5863   -1.2747 H         1 <0>         0.0452
     80 H42       -14.9938   -5.6244   -2.6258 H         1 <0>         0.0655
     81 H43       -14.5245   -6.6776   -1.2697 H         1 <0>         0.0576
     82 H44       -16.9100   -4.7735   -1.3020 H         1 <0>         0.0661
     83 H45       -16.9916   -6.5427   -1.4795 H         1 <0>         0.0671
     84 H46       -17.4692   -5.8597    0.8558 H         1 <0>         0.0707
     85 H47       -15.9702   -6.8150    0.7635 H         1 <0>         0.0613
     86 H48       -15.6677   -4.8215    2.2069 H         1 <0>         0.0700
     87 H49       -16.1369   -3.7684    0.8508 H         1 <0>         0.0709
     88 H50       -10.9435   -4.6990   -2.7737 H         1 <0>         0.4507
@<TRIPOS>BOND
     1    1    2 1
     2    1   39 1
     3    1   40 1
     4    1   41 1
     5    2    3 1
     6    2   42 1
     7    2   43 1
     8    3    4 1
     9    3   44 1
    10    3   45 1
    11    4    5 1
    12    4   46 1
    13    4   47 1
    14    5    6 am
    15    5   48 1
    16    6    7 2
    17    6    8 am
    18    8    9 1
    19    8   49 1
    20    9   10 1
    21    9   50 1
    22    9   51 1
    23   10   15 ar
    24   10   11 ar
    25   11   12 ar
    26   11   52 1
    27   12   13 ar
    28   12   53 1
    29   13   14 ar
    30   13   16 1
    31   14   15 ar
    32   14   54 1
    33   15   55 1
    34   16   17 1
    35   16   56 1
    36   16   57 1
    37   17   22 1
    38   17   18 am
    39   18   19 2
    40   18   20 1
    41   20   21 1
    42   20   24 1
    43   20   32 1
    44   21   22 1
    45   21   58 1
    46   22   23 2
    47   23   59 1
    48   23   88 1
    49   24   25 1
    50   24   60 1
    51   24   61 1
    52   25   26 1
    53   25   62 1
    54   25   63 1
    55   26   31 1
    56   26   27 1
    57   26   64 1
    58   27   28 1
    59   27   65 1
    60   27   66 1
    61   28   29 1
    62   28   67 1
    63   28   68 1
    64   29   30 1
    65   29   69 1
    66   29   70 1
    67   30   31 1
    68   30   71 1
    69   30   72 1
    70   31   73 1
    71   31   74 1
    72   32   33 1
    73   32   75 1
    74   32   76 1
    75   33   38 1
    76   33   34 1
    77   33   77 1
    78   34   35 1
    79   34   78 1
    80   34   79 1
    81   35   36 1
    82   35   80 1
    83   35   81 1
    84   36   37 1
    85   36   82 1
    86   36   83 1
    87   37   38 1
    88   37   84 1
    89   37   85 1
    90   38   86 1
    91   38   87 1
@<TRIPOS>MOLECULE
CHEMBL568942__1
   88    91     0     0     0
SMALL
USER_CHARGES

@<TRIPOS>ATOM
      1 C1          0.0394    1.3061    0.0859 C.3       1 <0>        -0.1536
      2 C2         -0.0138   -0.1726   -0.3031 C.3       1 <0>        -0.1227
      3 C3         -1.4572   -0.6719   -0.2136 C.3       1 <0>        -0.1310
      4 C4         -1.5104   -2.1507   -0.6026 C.3       1 <0>         0.1343
      5 N1         -2.8926   -2.6288   -0.5170 N.am      1 <0>        -0.7449
      6 C5         -3.1821   -3.9106   -0.8165 C.2       1 <0>         0.7021
      7 O1         -2.2961   -4.6701   -1.1578 O.2       1 <0>        -0.5805
      8 N2         -4.4536   -4.3504   -0.7377 N.am      1 <0>        -0.7481
      9 C6         -4.7683   -5.7437   -1.0632 C.3       1 <0>         0.1703
     10 C7         -6.2478   -5.9766   -0.8966 C.ar      1 <0>        -0.0772
     11 C8         -6.7499   -6.3852    0.3248 C.ar      1 <0>        -0.0926
     12 C9         -8.1071   -6.5989    0.4776 C.ar      1 <0>        -0.0816
     13 C10        -8.9622   -6.4036   -0.5908 C.ar      1 <0>        -0.1347
     14 C11        -8.4601   -5.9941   -1.8120 C.ar      1 <0>        -0.1042
     15 C12        -7.1035   -5.7763   -1.9636 C.ar      1 <0>        -0.0938
     16 C13       -10.4416   -6.6375   -0.4245 C.3       1 <0>         0.1375
     17 N3        -11.1065   -5.3666   -0.1265 N.am      1 <0>        -0.5518
     18 C14       -11.2769   -4.8702    1.1134 C.2       1 <0>         0.5438
     19 O2        -10.9185   -5.3792    2.1539 O.2       1 <0>        -0.4024
     20 C15       -12.0032   -3.5518    0.9535 C.3       1 <0>         0.1262
     21 N4        -12.1937   -3.4127   -0.4994 N.pl3     1 <0>        -0.6596
     22 C16       -11.6313   -4.5246   -1.0764 C.cat     1 <0>         0.7263
     23 N5        -11.6023   -4.7527   -2.3578 N.pl3     1 <0>        -0.7406
     24 C17       -13.3554   -3.5964    1.6680 C.3       1 <0>        -0.1237
     25 C18       -14.2060   -4.7241    1.0800 C.3       1 <0>        -0.1236
     26 C19       -15.5582   -4.7687    1.7945 C.3       1 <0>        -0.0843
     27 C20       -15.3471   -5.1442    3.2626 C.3       1 <0>        -0.1172
     28 C21       -16.6993   -5.1888    3.9771 C.3       1 <0>        -0.1220
     29 C22       -17.5958   -6.2323    3.3075 C.3       1 <0>        -0.1232
     30 C23       -17.8068   -5.8568    1.8394 C.3       1 <0>        -0.1217
     31 C24       -16.4547   -5.8122    1.1249 C.3       1 <0>        -0.1131
     32 C25       -11.1497   -2.4024    1.4932 C.3       1 <0>        -0.1207
     33 C26        -9.9051   -2.2372    0.6188 C.3       1 <0>        -0.0948
     34 C27        -8.9142   -3.3623    0.9243 C.3       1 <0>        -0.1285
     35 C28        -7.6696   -3.1971    0.0499 C.3       1 <0>        -0.1216
     36 C29        -7.0145   -1.8463    0.3452 C.3       1 <0>        -0.1258
     37 C30        -8.0054   -0.7213    0.0397 C.3       1 <0>        -0.1184
     38 C31        -9.2500   -0.8865    0.9140 C.3       1 <0>        -0.1127
     39 H1          1.0678    1.6618    0.0222 H         1 <0>         0.0587
     40 H2         -0.5875    1.8834   -0.5937 H         1 <0>         0.0541
     41 H3         -0.3241    1.4266    1.1064 H         1 <0>         0.0545
     42 H4          0.3498   -0.2932   -1.3236 H         1 <0>         0.0667
     43 H5          0.6131   -0.7499    0.3765 H         1 <0>         0.0671
     44 H6         -1.8208   -0.5514    0.8069 H         1 <0>         0.0686
     45 H7         -2.0842   -0.0947   -0.8932 H         1 <0>         0.0680
     46 H8         -1.1469   -2.2712   -1.6231 H         1 <0>         0.0690
     47 H9         -0.8835   -2.7280    0.0770 H         1 <0>         0.0694
     48 H10        -3.5994   -2.0228   -0.2447 H         1 <0>         0.3934
     49 H11        -5.1604   -3.7444   -0.4654 H         1 <0>         0.3932
     50 H12        -4.4819   -5.9494   -2.0946 H         1 <0>         0.0822
     51 H13        -4.2186   -6.4061   -0.3945 H         1 <0>         0.0828
     52 H14        -6.0819   -6.5378    1.1596 H         1 <0>         0.1356
     53 H15        -8.4993   -6.9188    1.4317 H         1 <0>         0.1337
     54 H16        -9.1282   -5.8419   -2.6468 H         1 <0>         0.1156
     55 H17        -6.7117   -5.4528   -2.9167 H         1 <0>         0.1337
     56 H18       -10.8494   -7.0538   -1.3456 H         1 <0>         0.1128
     57 H19       -10.6090   -7.3362    0.3953 H         1 <0>         0.1335
     58 H20       -12.6281   -2.6776   -0.9595 H         1 <0>         0.4612
     59 H21       -11.1896   -5.5624   -2.6970 H         1 <0>         0.4446
     60 H22       -13.1986   -3.7763    2.7315 H         1 <0>         0.1116
     61 H23       -13.8696   -2.6449    1.5323 H         1 <0>         0.1034
     62 H24       -14.3628   -4.5442    0.0164 H         1 <0>         0.0630
     63 H25       -13.6919   -5.6756    1.2156 H         1 <0>         0.0609
     64 H26       -16.0332   -3.7895    1.7346 H         1 <0>         0.0772
     65 H27       -14.8721   -6.1234    3.3224 H         1 <0>         0.0624
     66 H28       -14.7085   -4.4008    3.7396 H         1 <0>         0.0634
     67 H29       -16.5490   -5.4564    5.0230 H         1 <0>         0.0655
     68 H30       -17.1744   -4.2096    3.9172 H         1 <0>         0.0634
     69 H31       -17.1207   -7.2116    3.3674 H         1 <0>         0.0616
     70 H32       -18.5591   -6.2641    3.8165 H         1 <0>         0.0652
     71 H33       -18.4455   -6.6002    1.3624 H         1 <0>         0.0646
     72 H34       -18.2819   -4.8776    1.7795 H         1 <0>         0.0634
     73 H35       -16.6050   -5.5447    0.0790 H         1 <0>         0.0591
     74 H36       -15.9796   -6.7914    1.1848 H         1 <0>         0.0609
     75 H37       -11.7302   -1.4800    1.4768 H         1 <0>         0.1041
     76 H38       -10.8478   -2.6237    2.5169 H         1 <0>         0.1086
     77 H39       -10.1910   -2.2804   -0.4322 H         1 <0>         0.0671
     78 H40        -8.6283   -3.3191    1.9752 H         1 <0>         0.0740
     79 H41        -9.3809   -4.3246    0.7140 H         1 <0>         0.0564
     80 H42        -6.9636   -3.9986    0.2676 H         1 <0>         0.0694
     81 H43        -7.9555   -3.2402   -1.0010 H         1 <0>         0.0583
     82 H44        -6.7285   -1.8032    1.3961 H         1 <0>         0.0683
     83 H45        -6.1278   -1.7286   -0.2777 H         1 <0>         0.0599
     84 H46        -7.5387    0.2410    0.2500 H         1 <0>         0.0700
     85 H47        -8.2913   -0.7644   -1.0113 H         1 <0>         0.0599
     86 H48        -9.9559   -0.0850    0.6964 H         1 <0>         0.0683
     87 H49        -8.9641   -0.8433    1.9650 H         1 <0>         0.0711
     88 H50       -11.9932   -4.1131   -2.9733 H         1 <0>         0.4507
@<TRIPOS>BOND
     1    1    2 1
     2    1   39 1
     3    1   40 1
     4    1   41 1
     5    2    3 1
     6    2   42 1
     7    2   43 1
     8    3    4 1
     9    3   44 1
    10    3   45 1
    11    4    5 1
    12    4   46 1
    13    4   47 1
    14    5    6 am
    15    5   48 1
    16    6    7 2
    17    6    8 am
    18    8    9 1
    19    8   49 1
    20    9   10 1
    21    9   50 1
    22    9   51 1
    23   10   15 ar
    24   10   11 ar
    25   11   12 ar
    26   11   52 1
    27   12   13 ar
    28   12   53 1
    29   13   14 ar
    30   13   16 1
    31   14   15 ar
    32   14   54 1
    33   15   55 1
    34   16   17 1
    35   16   56 1
    36   16   57 1
    37   17   22 1
    38   17   18 am
    39   18   19 2
    40   18   20 1
    41   20   21 1
    42   20   24 1
    43   20   32 1
    44   21   22 1
    45   21   58 1
    46   22   23 2
    47   23   59 1
    48   23   88 1
    49   24   25 1
    50   24   60 1
    51   24   61 1
    52   25   26 1
    53   25   62 1
    54   25   63 1
    55   26   31 1
    56   26   27 1
    57   26   64 1
    58   27   28 1
    59   27   65 1
    60   27   66 1
    61   28   29 1
    62   28   67 1
    63   28   68 1
    64   29   30 1
    65   29   69 1
    66   29   70 1
    67   30   31 1
    68   30   71 1
    69   30   72 1
    70   31   73 1
    71   31   74 1
    72   32   33 1
    73   32   75 1
    74   32   76 1
    75   33   38 1
    76   33   34 1
    77   33   77 1
    78   34   35 1
    79   34   78 1
    80   34   79 1
    81   35   36 1
    82   35   80 1
    83   35   81 1
    84   36   37 1
    85   36   82 1
    86   36   83 1
    87   37   38 1
    88   37   84 1
    89   37   85 1
    90   38   86 1
    91   38   87 1
@<TRIPOS>MOLECULE
CHEMBL567688
   51    54     0     0     0
SMALL
USER_CHARGES

@<TRIPOS>ATOM
      1 C1         -2.7537    0.7461   -0.3677 C.3       1 <0>        -0.1124
      2 C2         -1.6315   -0.2568   -0.2915 C.ar      1 <0>        -0.1057
      3 C3         -1.3291   -1.0407   -1.3884 C.ar      1 <0>        -0.0603
      4 C4         -0.3001   -1.9613   -1.3190 C.ar      1 <0>        -0.1582
      5 C5          0.4293   -2.0998   -0.1523 C.ar      1 <0>        -0.0582
      6 C6          0.1313   -1.3183    0.9468 C.ar      1 <0>        -0.1933
      7 C7         -0.8976   -0.3899    0.8780 C.ar      1 <0>         0.1575
      8 O1         -1.1892    0.3842    1.9563 O.3       1 <0>        -0.3050
      9 C8         -0.3920    0.1930    3.1268 C.3       1 <0>         0.0208
     10 C9          0.0269   -2.8156   -2.5165 C.3       1 <0>         0.2395
     11 C10         1.5223   -2.8498   -2.7493 C.2       1 <0>         0.5433
     12 O2          2.3655   -3.2713   -1.9868 O.2       1 <0>        -0.3928
     13 N1          1.7322   -2.3206   -3.9694 N.am      1 <0>        -0.5523
     14 C11         0.5500   -1.9455   -4.5596 C.cat     1 <0>         0.7341
     15 N2         -0.5207   -2.2133   -3.7429 N.pl3     1 <0>        -0.6666
     16 N3          0.4568   -1.4054   -5.7405 N.pl3     1 <0>        -0.7309
     17 C12         3.0512   -2.1651   -4.5877 C.3       1 <0>         0.0553
     18 C13        -0.5114   -4.2107   -2.3293 C.ar      1 <0>        -0.1216
     19 C14         0.0535   -5.0470   -1.3830 C.ar      1 <0>        -0.0553
     20 C15        -0.4342   -6.3284   -1.2054 C.ar      1 <0>        -0.1335
     21 C16        -1.4908   -6.7809   -1.9741 C.ar      1 <0>         0.1405
     22 C17        -2.0639   -5.9406   -2.9293 C.ar      1 <0>        -0.0626
     23 C18        -1.5703   -4.6487   -3.0984 C.ar      1 <0>        -0.0593
     24 C19        -3.1979   -6.4191   -3.7579 C.ar      1 <0>        -0.1746
     25 C20        -4.3597   -5.6552   -3.8944 C.ar      1 <0>         0.1690
     26 N4         -5.3461   -6.1187   -4.6425 N.ar      1 <0>        -0.5130
     27 C21        -5.2441   -7.2821   -5.2540 C.ar      1 <0>         0.3090
     28 N5         -4.1662   -8.0341   -5.1514 N.ar      1 <0>        -0.5097
     29 C22        -3.1311   -7.6433   -4.4279 C.ar      1 <0>         0.1769
     30 F1         -1.9667   -8.0334   -1.8010 F         1 <0>        -0.1186
     31 H1         -2.3639    1.7014   -0.7192 H         1 <0>         0.0747
     32 H2         -3.5152    0.3874   -1.0602 H         1 <0>         0.0694
     33 H3         -3.1936    0.8750    0.6213 H         1 <0>         0.0789
     34 H4         -1.8973   -0.9344   -2.3006 H         1 <0>         0.1257
     35 H5          1.2325   -2.8200   -0.1005 H         1 <0>         0.1398
     36 H6          0.7012   -1.4269    1.8577 H         1 <0>         0.1429
     37 H7         -0.4916   -0.8367    3.4700 H         1 <0>         0.0623
     38 H8          0.6525    0.3985    2.8925 H         1 <0>         0.0614
     39 H9         -0.7289    0.8714    3.9106 H         1 <0>         0.1101
     40 H10         1.2569   -1.2441   -6.2646 H         1 <0>         0.4502
     41 H11         3.2916   -3.0604   -5.1610 H         1 <0>         0.1042
     42 H12         3.0417   -1.3004   -5.2513 H         1 <0>         0.1008
     43 H13         3.8016   -2.0187   -3.8108 H         1 <0>         0.1216
     44 H14         0.8792   -4.6976   -0.7808 H         1 <0>         0.1488
     45 H15         0.0109   -6.9771   -0.4654 H         1 <0>         0.1562
     46 H16        -2.0126   -3.9926   -3.8335 H         1 <0>         0.1318
     47 H17        -4.4507   -4.7013   -3.3962 H         1 <0>         0.1695
     48 H18        -6.0694   -7.6302   -5.8574 H         1 <0>         0.2050
     49 H19        -2.2494   -8.2624   -4.3526 H         1 <0>         0.1696
     50 H20        -1.4553   -2.0401   -3.9364 H         1 <0>         0.4628
     51 H21        -0.4128   -1.1643   -6.0963 H         1 <0>         0.4526
@<TRIPOS>BOND
     1    1    2 1
     2    1   31 1
     3    1   32 1
     4    1   33 1
     5    2    7 ar
     6    2    3 ar
     7    3    4 ar
     8    3   34 1
     9    4    5 ar
    10    4   10 1
    11    5    6 ar
    12    5   35 1
    13    6    7 ar
    14    6   36 1
    15    7    8 1
    16    8    9 1
    17    9   37 1
    18    9   38 1
    19    9   39 1
    20   10   15 1
    21   10   11 1
    22   10   18 1
    23   11   12 2
    24   11   13 am
    25   13   14 1
    26   13   17 1
    27   14   15 1
    28   14   16 2
    29   15   50 1
    30   16   40 1
    31   16   51 1
    32   17   41 1
    33   17   42 1
    34   17   43 1
    35   18   23 ar
    36   18   19 ar
    37   19   20 ar
    38   19   44 1
    39   20   21 ar
    40   20   45 1
    41   21   22 ar
    42   21   30 1
    43   22   23 ar
    44   22   24 1
    45   23   46 1
    46   24   29 ar
    47   24   25 ar
    48   25   26 ar
    49   25   47 1
    50   26   27 ar
    51   27   28 ar
    52   27   48 1
    53   28   29 ar
    54   29   49 1
@<TRIPOS>MOLECULE
CHEMBL567688__1
   51    54     0     0     0
SMALL
USER_CHARGES

@<TRIPOS>ATOM
      1 C1         -2.1689    0.5462    0.4687 C.3       1 <0>        -0.1131
      2 C2         -1.0663   -0.4488    0.2132 C.ar      1 <0>        -0.1036
      3 C3         -1.0255   -1.1444   -0.9799 C.ar      1 <0>        -0.0605
      4 C4         -0.0146   -2.0576   -1.2147 C.ar      1 <0>        -0.1601
      5 C5          0.9583   -2.2771   -0.2568 C.ar      1 <0>        -0.0598
      6 C6          0.9223   -1.5840    0.9374 C.ar      1 <0>        -0.1921
      7 C7         -0.0884   -0.6630    1.1733 C.ar      1 <0>         0.1595
      8 O1         -0.1229    0.0244    2.3452 O.3       1 <0>        -0.3042
      9 C8          0.9165   -0.2473    3.2875 C.3       1 <0>         0.0204
     10 C9          0.0269   -2.8156   -2.5165 C.3       1 <0>         0.2295
     11 C10         1.4390   -2.8503   -3.0671 C.2       1 <0>         0.5435
     12 O2          2.4200   -3.3410   -2.5504 O.2       1 <0>        -0.3857
     13 N1          1.3679   -2.2173   -4.2570 N.am      1 <0>        -0.5521
     14 C11         0.0848   -1.7972   -4.5061 C.cat     1 <0>         0.7335
     15 N2         -0.7392   -2.1048   -3.5526 N.pl3     1 <0>        -0.6271
     16 N3         -0.2870   -1.1223   -5.6443 N.pl3     1 <0>        -0.7754
     17 C12         2.5034   -2.0073   -5.1585 C.3       1 <0>         0.0577
     18 C13        -0.5057   -4.2130   -2.3304 C.ar      1 <0>        -0.1243
     19 C14         0.0640   -5.0484   -1.3860 C.ar      1 <0>        -0.0473
     20 C15        -0.4185   -6.3319   -1.2093 C.ar      1 <0>        -0.1331
     21 C16        -1.4746   -6.7875   -1.9770 C.ar      1 <0>         0.1432
     22 C17        -2.0524   -5.9482   -2.9302 C.ar      1 <0>        -0.0614
     23 C18        -1.5641   -4.6541   -3.0983 C.ar      1 <0>        -0.0641
     24 C19        -3.1858   -6.4299   -3.7577 C.ar      1 <0>        -0.1756
     25 C20        -4.3508   -5.6703   -3.8913 C.ar      1 <0>         0.1687
     26 N4         -5.3366   -6.1367   -4.6385 N.ar      1 <0>        -0.5132
     27 C21        -5.2311   -7.2989   -5.2517 C.ar      1 <0>         0.3098
     28 N5         -4.1501   -8.0468   -5.1518 N.ar      1 <0>        -0.5091
     29 C22        -3.1154   -7.6529   -4.4294 C.ar      1 <0>         0.1777
     30 F1         -1.9454   -8.0420   -1.8049 F         1 <0>        -0.1175
     31 H1         -1.8612    1.5291    0.1119 H         1 <0>         0.0756
     32 H2         -3.0699    0.2337   -0.0592 H         1 <0>         0.0700
     33 H3         -2.3731    0.5955    1.5383 H         1 <0>         0.0796
     34 H4         -1.7842   -0.9747   -1.7296 H         1 <0>         0.1257
     35 H5          1.7469   -2.9914   -0.4425 H         1 <0>         0.1416
     36 H6          1.6823   -1.7558    1.6852 H         1 <0>         0.1444
     37 H7          1.8827   -0.0146    2.8398 H         1 <0>         0.0618
     38 H8          0.7706    0.3665    4.1763 H         1 <0>         0.1106
     39 H9          0.8890   -1.3010    3.5651 H         1 <0>         0.0628
     40 H10         0.3733   -0.9191   -6.3251 H         1 <0>         0.4455
     41 H11        -1.2097   -0.8493   -5.7667 H         1 <0>         0.4471
     42 H12         2.5823   -2.8496   -5.8458 H         1 <0>         0.1032
     43 H13         2.3522   -1.0887   -5.7254 H         1 <0>         0.1017
     44 H14         3.4206   -1.9274   -4.5750 H         1 <0>         0.1200
     45 H15         0.8892   -4.6966   -0.7846 H         1 <0>         0.1483
     46 H16         0.0303   -6.9798   -0.4709 H         1 <0>         0.1576
     47 H17        -2.0101   -3.9988   -3.8318 H         1 <0>         0.1310
     48 H18        -4.4447   -4.7174   -3.3917 H         1 <0>         0.1688
     49 H19        -6.0560   -7.6494   -5.8543 H         1 <0>         0.2054
     50 H20        -2.2311   -8.2687   -4.3563 H         1 <0>         0.1701
     51 H21        -1.6877   -1.9034   -3.5273 H         1 <0>         0.4651
@<TRIPOS>BOND
     1    1    2 1
     2    1   31 1
     3    1   32 1
     4    1   33 1
     5    2    7 ar
     6    2    3 ar
     7    3    4 ar
     8    3   34 1
     9    4    5 ar
    10    4   10 1
    11    5    6 ar
    12    5   35 1
    13    6    7 ar
    14    6   36 1
    15    7    8 1
    16    8    9 1
    17    9   37 1
    18    9   38 1
    19    9   39 1
    20   10   15 1
    21   10   11 1
    22   10   18 1
    23   11   12 2
    24   11   13 am
    25   13   14 1
    26   13   17 1
    27   14   15 2
    28   14   16 1
    29   15   51 1
    30   16   40 1
    31   16   41 1
    32   17   42 1
    33   17   43 1
    34   17   44 1
    35   18   23 ar
    36   18   19 ar
    37   19   20 ar
    38   19   45 1
    39   20   21 ar
    40   20   46 1
    41   21   22 ar
    42   21   30 1
    43   22   23 ar
    44   22   24 1
    45   23   47 1
    46   24   29 ar
    47   24   25 ar
    48   25   26 ar
    49   25   48 1
    50   26   27 ar
    51   27   28 ar
    52   27   49 1
    53   28   29 ar
    54   29   50 1
@<TRIPOS>MOLECULE
CHEMBL567688__2
   51    54     0     0     0
SMALL
USER_CHARGES

@<TRIPOS>ATOM
      1 C1          1.9401    1.0685   -0.0087 C.3       1 <0>        -0.1120
      2 C2          1.0508   -0.1474   -0.0506 C.ar      1 <0>        -0.1058
      3 C3          0.9509   -0.8914   -1.2105 C.ar      1 <0>        -0.0602
      4 C4          0.1348   -2.0066   -1.2497 C.ar      1 <0>        -0.1583
      5 C5         -0.5830   -2.3807   -0.1285 C.ar      1 <0>        -0.0588
      6 C6         -0.4862   -1.6406    1.0337 C.ar      1 <0>        -0.1932
      7 C7          0.3362   -0.5239    1.0771 C.ar      1 <0>         0.1580
      8 O1          0.4375    0.2027    2.2211 O.3       1 <0>        -0.3049
      9 C8         -0.3269   -0.2436    3.3430 C.3       1 <0>         0.0206
     10 C9          0.0269   -2.8156   -2.5165 C.3       1 <0>         0.2394
     11 C10        -1.4230   -3.1181   -2.8290 C.2       1 <0>         0.5421
     12 O2         -2.1969   -3.7487   -2.1408 O.2       1 <0>        -0.3932
     13 N1         -1.6848   -2.5491   -4.0208 N.am      1 <0>        -0.5524
     14 C11        -0.5765   -1.9113   -4.5223 C.cat     1 <0>         0.7342
     15 N2          0.4936   -2.0295   -3.6701 N.pl3     1 <0>        -0.6652
     16 N3         -0.5446   -1.2771   -5.6588 N.pl3     1 <0>        -0.7307
     17 C12        -2.9840   -2.6033   -4.6956 C.3       1 <0>         0.0551
     18 C13         0.8191   -4.0917   -2.3939 C.ar      1 <0>        -0.1220
     19 C14         1.9872   -4.2510   -3.1182 C.ar      1 <0>        -0.0662
     20 C15         2.7195   -5.4188   -3.0117 C.ar      1 <0>        -0.1380
     21 C16         2.2872   -6.4349   -2.1793 C.ar      1 <0>         0.1399
     22 C17         1.1100   -6.2783   -1.4467 C.ar      1 <0>        -0.0563
     23 C18         0.3806   -5.0961   -1.5553 C.ar      1 <0>        -0.0504
     24 C19         0.6398   -7.3641   -0.5515 C.ar      1 <0>        -0.1766
     25 C20         0.2767   -7.0974    0.7710 C.ar      1 <0>         0.1736
     26 N4         -0.1373   -8.0941    1.5344 N.ar      1 <0>        -0.5126
     27 C21        -0.2097   -9.3235    1.0639 C.ar      1 <0>         0.3098
     28 N5          0.1236   -9.6182   -0.1771 N.ar      1 <0>        -0.5110
     29 C22         0.5423   -8.6804   -1.0095 C.ar      1 <0>         0.1777
     30 F1          3.0024   -7.5763   -2.0760 F         1 <0>        -0.1184
     31 H1          2.9421    0.7752    0.3046 H         1 <0>         0.0771
     32 H2          1.9868    1.5188   -1.0003 H         1 <0>         0.0675
     33 H3          1.5348    1.7909    0.6997 H         1 <0>         0.0781
     34 H4          1.5105   -0.6012   -2.0875 H         1 <0>         0.1261
     35 H5         -1.2201   -3.2521   -0.1617 H         1 <0>         0.1381
     36 H6         -1.0470   -1.9332    1.9090 H         1 <0>         0.1433
     37 H7         -1.3861   -0.2390    3.0859 H         1 <0>         0.0613
     38 H8         -0.0224   -1.2553    3.6107 H         1 <0>         0.0627
     39 H9         -0.1552    0.4232    4.1880 H         1 <0>         0.1102
     40 H10        -1.3400   -1.2332   -6.2122 H         1 <0>         0.4501
     41 H11        -3.5893   -1.7508   -4.3874 H         1 <0>         0.1042
     42 H12        -2.8345   -2.5715   -5.7749 H         1 <0>         0.1012
     43 H13        -3.4948   -3.5279   -4.4267 H         1 <0>         0.1211
     44 H14         2.3281   -3.4600   -3.7697 H         1 <0>         0.1335
     45 H15         3.6303   -5.5378   -3.5797 H         1 <0>         0.1541
     46 H16        -0.5291   -4.9678   -0.9875 H         1 <0>         0.1475
     47 H17         0.3337   -6.0929    1.1636 H         1 <0>         0.1698
     48 H18        -0.5523  -10.1137    1.7154 H         1 <0>         0.2050
     49 H19         0.8088   -8.9286   -2.0262 H         1 <0>         0.1691
     50 H20         1.3830   -1.6655   -3.8021 H         1 <0>         0.4634
     51 H21         0.2746   -0.8485   -5.9522 H         1 <0>         0.4527
@<TRIPOS>BOND
     1    1    2 1
     2    1   31 1
     3    1   32 1
     4    1   33 1
     5    2    7 ar
     6    2    3 ar
     7    3    4 ar
     8    3   34 1
     9    4    5 ar
    10    4   10 1
    11    5    6 ar
    12    5   35 1
    13    6    7 ar
    14    6   36 1
    15    7    8 1
    16    8    9 1
    17    9   37 1
    18    9   38 1
    19    9   39 1
    20   10   15 1
    21   10   11 1
    22   10   18 1
    23   11   12 2
    24   11   13 am
    25   13   14 1
    26   13   17 1
    27   14   15 1
    28   14   16 2
    29   15   50 1
    30   16   40 1
    31   16   51 1
    32   17   41 1
    33   17   42 1
    34   17   43 1
    35   18   23 ar
    36   18   19 ar
    37   19   20 ar
    38   19   44 1
    39   20   21 ar
    40   20   45 1
    41   21   22 ar
    42   21   30 1
    43   22   23 ar
    44   22   24 1
    45   23   46 1
    46   24   29 ar
    47   24   25 ar
    48   25   26 ar
    49   25   47 1
    50   26   27 ar
    51   27   28 ar
    52   27   48 1
    53   28   29 ar
    54   29   49 1
@<TRIPOS>MOLECULE
CHEMBL567688__3
   51    54     0     0     0
SMALL
USER_CHARGES

@<TRIPOS>ATOM
      1 C1          1.9551    1.0488    0.0101 C.3       1 <0>        -0.1126
      2 C2          1.0552   -0.1590   -0.0399 C.ar      1 <0>        -0.1042
      3 C3          0.9578   -0.9010   -1.2014 C.ar      1 <0>        -0.0622
      4 C4          0.1320   -2.0087   -1.2481 C.ar      1 <0>        -0.1602
      5 C5         -0.5980   -2.3774   -0.1330 C.ar      1 <0>        -0.0550
      6 C6         -0.5037   -1.6392    1.0306 C.ar      1 <0>        -0.1925
      7 C7          0.3283   -0.5300    1.0817 C.ar      1 <0>         0.1596
      8 O1          0.4271    0.1946    2.2271 O.3       1 <0>        -0.3043
      9 C8         -0.3501   -0.2458    3.3425 C.3       1 <0>         0.0204
     10 C9          0.0269   -2.8156   -2.5165 C.3       1 <0>         0.2292
     11 C10        -1.4244   -3.1092   -2.8415 C.2       1 <0>         0.5442
     12 O2         -2.2179   -3.7354   -2.1717 O.2       1 <0>        -0.3870
     13 N1         -1.6425   -2.5225   -4.0372 N.am      1 <0>        -0.5517
     14 C11        -0.5028   -1.9037   -4.4880 C.cat     1 <0>         0.7342
     15 N2          0.4952   -2.0294   -3.6690 N.pl3     1 <0>        -0.6274
     16 N3         -0.4273   -1.2239   -5.6802 N.pl3     1 <0>        -0.7751
     17 C12        -2.9193   -2.5431   -4.7552 C.3       1 <0>         0.0577
     18 C13         0.8138   -4.0950   -2.3944 C.ar      1 <0>        -0.1226
     19 C14         0.3660   -5.1035   -1.5597 C.ar      1 <0>        -0.0544
     20 C15         1.0824   -6.2801   -1.4417 C.ar      1 <0>        -0.1319
     21 C16         2.2518   -6.4547   -2.1587 C.ar      1 <0>         0.1421
     22 C17         2.7068   -5.4405   -3.0020 C.ar      1 <0>        -0.0603
     23 C18         1.9762   -4.2599   -3.1197 C.ar      1 <0>        -0.0609
     24 C19         3.9607   -5.6206   -3.7745 C.ar      1 <0>        -0.1749
     25 C20         4.0017   -5.3624   -5.1470 C.ar      1 <0>         0.1678
     26 N4          5.1398   -5.5354   -5.7970 N.ar      1 <0>        -0.5140
     27 C21         6.2239   -5.9449   -5.1685 C.ar      1 <0>         0.3103
     28 N5          6.2283   -6.2001   -3.8752 N.ar      1 <0>        -0.5082
     29 C22         5.1345   -6.0476   -3.1485 C.ar      1 <0>         0.1796
     30 F1          2.9522   -7.6042   -2.0426 F         1 <0>        -0.1176
     31 H1          2.9519    0.7461    0.3311 H         1 <0>         0.0776
     32 H2          2.0137    1.4996   -0.9806 H         1 <0>         0.0678
     33 H3          1.5507    1.7742    0.7161 H         1 <0>         0.0789
     34 H4          1.5269   -0.6151   -2.0736 H         1 <0>         0.1246
     35 H5         -1.2427   -3.2430   -0.1721 H         1 <0>         0.1402
     36 H6         -1.0741   -1.9275    1.9012 H         1 <0>         0.1443
     37 H7         -0.0569   -1.2605    3.6117 H         1 <0>         0.0628
     38 H8         -0.1792    0.4186    4.1895 H         1 <0>         0.1106
     39 H9         -1.4072   -0.2314    3.0770 H         1 <0>         0.0618
     40 H10        -1.2073   -1.1623   -6.2536 H         1 <0>         0.4457
     41 H11         0.4059   -0.8058   -5.9482 H         1 <0>         0.4471
     42 H12        -3.5178   -1.6823   -4.4570 H         1 <0>         0.1033
     43 H13        -2.7333   -2.5021   -5.8285 H         1 <0>         0.1020
     44 H14        -3.4568   -3.4603   -4.5144 H         1 <0>         0.1201
     45 H15        -0.5467   -4.9709   -0.9977 H         1 <0>         0.1497
     46 H16         0.7283   -7.0637   -0.7883 H         1 <0>         0.1575
     47 H17         2.3216   -3.4732   -3.7741 H         1 <0>         0.1309
     48 H18         3.1176   -5.0270   -5.6687 H         1 <0>         0.1658
     49 H19         7.1367   -6.0757   -5.7308 H         1 <0>         0.2055
     50 H20         5.1470   -6.2539   -2.0884 H         1 <0>         0.1710
     51 H21         1.3876   -1.6701   -3.7932 H         1 <0>         0.4645
@<TRIPOS>BOND
     1    1    2 1
     2    1   31 1
     3    1   32 1
     4    1   33 1
     5    2    7 ar
     6    2    3 ar
     7    3    4 ar
     8    3   34 1
     9    4    5 ar
    10    4   10 1
    11    5    6 ar
    12    5   35 1
    13    6    7 ar
    14    6   36 1
    15    7    8 1
    16    8    9 1
    17    9   37 1
    18    9   38 1
    19    9   39 1
    20   10   15 1
    21   10   11 1
    22   10   18 1
    23   11   12 2
    24   11   13 am
    25   13   14 1
    26   13   17 1
    27   14   15 2
    28   14   16 1
    29   15   51 1
    30   16   40 1
    31   16   41 1
    32   17   42 1
    33   17   43 1
    34   17   44 1
    35   18   23 ar
    36   18   19 ar
    37   19   20 ar
    38   19   45 1
    39   20   21 ar
    40   20   46 1
    41   21   22 ar
    42   21   30 1
    43   22   23 ar
    44   22   24 1
    45   23   47 1
    46   24   29 ar
    47   24   25 ar
    48   25   26 ar
    49   25   48 1
    50   26   27 ar
    51   27   28 ar
    52   27   49 1
    53   28   29 ar
    54   29   50 1
@<TRIPOS>MOLECULE
CHEMBL566415
   48    52     0     0     0
SMALL
USER_CHARGES

@<TRIPOS>ATOM
      1 C1         -0.0981    1.4574    0.3311 C.3       1 <0>         0.0604
      2 N1         -0.0518    0.0051    0.1441 N.am      1 <0>        -0.5526
      3 C2         -1.1146   -0.8118    0.2699 C.2       1 <0>         0.5411
      4 O1         -2.2490   -0.4881    0.5501 O.2       1 <0>        -0.3882
      5 C3         -0.6155   -2.2137   -0.0076 C.3       1 <0>         0.2373
      6 N2          0.8186   -2.0422   -0.2913 N.pl3     1 <0>        -0.6635
      7 C4          1.0804   -0.6983   -0.1881 C.cat     1 <0>         0.7346
      8 N3          2.2508   -0.1606   -0.3773 N.pl3     1 <0>        -0.7314
      9 C5         -1.3227   -2.7971   -1.2037 C.ar      1 <0>        -0.1106
     10 C6         -0.5883   -3.3355   -2.2452 C.ar      1 <0>        -0.1003
     11 C7         -1.2307   -3.8726   -3.3459 C.ar      1 <0>        -0.1013
     12 C8         -2.6096   -3.8746   -3.4105 C.ar      1 <0>        -0.0875
     13 C9         -3.3542   -3.3341   -2.3643 C.ar      1 <0>        -0.0175
     14 C10        -2.7017   -2.7986   -1.2554 C.ar      1 <0>        -0.0860
     15 C11        -4.8367   -3.3334   -2.4281 C.ar      1 <0>        -0.1165
     16 C12        -5.5003   -3.8777   -3.5312 C.ar      1 <0>        -0.0603
     17 C13        -6.8841   -3.8527   -3.5429 C.ar      1 <0>        -0.1658
     18 C14        -7.5597   -3.2950   -2.4725 C.ar      1 <0>         0.1111
     19 N4         -6.9059   -2.7884   -1.4453 N.ar      1 <0>        -0.4780
     20 C15        -5.5897   -2.7953   -1.3870 C.ar      1 <0>         0.1160
     21 C16        -0.8118   -3.0914    1.2015 C.ar      1 <0>        -0.1115
     22 C17         0.2135   -3.9136    1.6307 C.ar      1 <0>        -0.0846
     23 C18         0.0384   -4.7202    2.7397 C.ar      1 <0>        -0.0941
     24 C19        -1.1663   -4.7067    3.4237 C.ar      1 <0>         0.0635
     25 C20        -2.1991   -3.8785    2.9913 C.ar      1 <0>         0.0513
     26 C21        -2.0146   -3.0685    1.8825 C.ar      1 <0>        -0.0824
     27 O2         -3.2692   -4.0455    3.8222 O.3       1 <0>        -0.2981
     28 C22        -3.0248   -5.2810    4.5201 C.3       1 <0>         0.2109
     29 O3         -1.5893   -5.3925    4.5255 O.3       1 <0>        -0.2989
     30 H1          0.8944    1.8768    0.1666 H         1 <0>         0.0997
     31 H2         -0.7992    1.8932   -0.3806 H         1 <0>         0.1112
     32 H3         -0.4240    1.6827    1.3466 H         1 <0>         0.1116
     33 H4          2.3648    0.7982   -0.2849 H         1 <0>         0.4493
     34 H5          0.4907   -3.3360   -2.1988 H         1 <0>         0.1227
     35 H6         -0.6526   -4.2910   -4.1565 H         1 <0>         0.1397
     36 H7         -3.1103   -4.2939   -4.2706 H         1 <0>         0.1378
     37 H8         -3.2741   -2.3818   -0.4400 H         1 <0>         0.1385
     38 H9         -4.9473   -4.3066   -4.3537 H         1 <0>         0.1394
     39 H10        -7.4305   -4.2638   -4.3789 H         1 <0>         0.1441
     40 H11        -8.6395   -3.2737   -2.4782 H         1 <0>         0.1633
     41 H12        -5.0899   -2.3755   -0.5266 H         1 <0>         0.1545
     42 H13         1.1530   -3.9261    1.0983 H         1 <0>         0.1355
     43 H14         0.8410   -5.3615    3.0727 H         1 <0>         0.1500
     44 H15        -2.8122   -2.4219    1.5476 H         1 <0>         0.1492
     45 H16        -3.4087   -5.2278    5.5389 H         1 <0>         0.1437
     46 H17        -3.4720   -6.1184    3.9845 H         1 <0>         0.0961
     47 H18         1.4537   -2.7414   -0.5118 H         1 <0>         0.4639
     48 H19         3.0089   -0.7189   -0.6108 H         1 <0>         0.4528
@<TRIPOS>BOND
     1    1    2 1
     2    1   30 1
     3    1   31 1
     4    1   32 1
     5    2    7 1
     6    2    3 am
     7    3    4 2
     8    3    5 1
     9    5    6 1
    10    5    9 1
    11    5   21 1
    12    6    7 1
    13    6   47 1
    14    7    8 2
    15    8   33 1
    16    8   48 1
    17    9   14 ar
    18    9   10 ar
    19   10   11 ar
    20   10   34 1
    21   11   12 ar
    22   11   35 1
    23   12   13 ar
    24   12   36 1
    25   13   14 ar
    26   13   15 1
    27   14   37 1
    28   15   20 ar
    29   15   16 ar
    30   16   17 ar
    31   16   38 1
    32   17   18 ar
    33   17   39 1
    34   18   19 ar
    35   18   40 1
    36   19   20 ar
    37   20   41 1
    38   21   26 ar
    39   21   22 ar
    40   22   23 ar
    41   22   42 1
    42   23   24 ar
    43   23   43 1
    44   24   29 1
    45   24   25 ar
    46   25   26 ar
    47   25   27 1
    48   26   44 1
    49   27   28 1
    50   28   29 1
    51   28   45 1
    52   28   46 1
@<TRIPOS>MOLECULE
CHEMBL566415__1
   48    52     0     0     0
SMALL
USER_CHARGES

@<TRIPOS>ATOM
      1 C1         -1.5988    1.3390    0.3476 C.3       1 <0>         0.0625
      2 N1         -0.9696    0.0223    0.2178 N.am      1 <0>        -0.5521
      3 C2         -1.6423   -1.1412    0.0936 C.2       1 <0>         0.5434
      4 O1         -2.8442   -1.2989    0.0679 O.2       1 <0>        -0.3826
      5 C3         -0.5701   -2.2081   -0.0072 C.3       1 <0>         0.2273
      6 N2          0.6898   -1.4527    0.0797 N.pl3     1 <0>        -0.6263
      7 C4          0.3854   -0.1973    0.1998 C.cat     1 <0>         0.7352
      8 N3          1.3199    0.8054    0.3020 N.pl3     1 <0>        -0.7752
      9 C5         -0.6642   -2.9293   -1.3272 C.ar      1 <0>        -0.1114
     10 C6         -1.8814   -3.4272   -1.7566 C.ar      1 <0>        -0.0900
     11 C7         -1.9750   -4.0900   -2.9668 C.ar      1 <0>        -0.0949
     12 C8         -0.8530   -4.2578   -3.7533 C.ar      1 <0>        -0.0848
     13 C9          0.3752   -3.7580   -3.3259 C.ar      1 <0>        -0.0225
     14 C10         0.4628   -3.0868   -2.1078 C.ar      1 <0>        -0.0946
     15 C11         1.5848   -3.9354   -4.1671 C.ar      1 <0>        -0.1118
     16 C12         1.5048   -4.5979   -5.3951 C.ar      1 <0>        -0.0604
     17 C13         2.6616   -4.7375   -6.1423 C.ar      1 <0>        -0.1614
     18 C14         3.8485   -4.2217   -5.6543 C.ar      1 <0>         0.1101
     19 N4          3.8930   -3.6015   -4.4912 N.ar      1 <0>        -0.4793
     20 C15         2.8172   -3.4392   -3.7482 C.ar      1 <0>         0.1090
     21 C16        -0.6831   -3.1813    1.1378 C.ar      1 <0>        -0.1131
     22 C17         0.4342   -3.4954    1.8890 C.ar      1 <0>        -0.0872
     23 C18         0.3354   -4.3871    2.9407 C.ar      1 <0>        -0.0927
     24 C19        -0.8848   -4.9691    3.2440 C.ar      1 <0>         0.0655
     25 C20        -2.0103   -4.6528    2.4872 C.ar      1 <0>         0.0513
     26 C21        -1.9050   -3.7538    1.4383 C.ar      1 <0>        -0.0767
     27 O2         -3.0766   -5.3484    2.9795 O.3       1 <0>        -0.2983
     28 C22        -2.5111   -6.4011    3.7829 C.3       1 <0>         0.2109
     29 O3         -1.2459   -5.8628    4.2105 O.3       1 <0>        -0.2983
     30 H1         -0.8268    2.1044    0.4268 H         1 <0>         0.1012
     31 H2         -2.2160    1.5348   -0.5293 H         1 <0>         0.1100
     32 H3         -2.2218    1.3574    1.2418 H         1 <0>         0.1102
     33 H4          1.0336    1.7277    0.3932 H         1 <0>         0.4449
     34 H5          2.2656    0.5907    0.2830 H         1 <0>         0.4475
     35 H6         -2.7617   -3.2981   -1.1444 H         1 <0>         0.1395
     36 H7         -2.9275   -4.4773   -3.2970 H         1 <0>         0.1434
     37 H8         -0.9271   -4.7758   -4.6981 H         1 <0>         0.1388
     38 H9          1.4117   -2.6941   -1.7735 H         1 <0>         0.1222
     39 H10         0.5644   -4.9913   -5.7518 H         1 <0>         0.1408
     40 H11         2.6377   -5.2441   -7.0958 H         1 <0>         0.1452
     41 H12         4.7531   -4.3288   -6.2345 H         1 <0>         0.1640
     42 H13         2.8924   -2.9213   -2.8035 H         1 <0>         0.1487
     43 H14         1.3863   -3.0433    1.6536 H         1 <0>         0.1346
     44 H15         1.2099   -4.6306    3.5259 H         1 <0>         0.1512
     45 H16        -2.7771   -3.5032    0.8526 H         1 <0>         0.1500
     46 H17        -3.1479   -6.6113    4.6422 H         1 <0>         0.1441
     47 H18        -2.3624   -7.3008    3.1858 H         1 <0>         0.0967
     48 H19         1.5849   -1.8251    0.0485 H         1 <0>         0.4652
@<TRIPOS>BOND
     1    1    2 1
     2    1   30 1
     3    1   31 1
     4    1   32 1
     5    2    7 1
     6    2    3 am
     7    3    4 2
     8    3    5 1
     9    5    6 1
    10    5    9 1
    11    5   21 1
    12    6    7 2
    13    6   48 1
    14    7    8 1
    15    8   33 1
    16    8   34 1
    17    9   14 ar
    18    9   10 ar
    19   10   11 ar
    20   10   35 1
    21   11   12 ar
    22   11   36 1
    23   12   13 ar
    24   12   37 1
    25   13   14 ar
    26   13   15 1
    27   14   38 1
    28   15   20 ar
    29   15   16 ar
    30   16   17 ar
    31   16   39 1
    32   17   18 ar
    33   17   40 1
    34   18   19 ar
    35   18   41 1
    36   19   20 ar
    37   20   42 1
    38   21   26 ar
    39   21   22 ar
    40   22   23 ar
    41   22   43 1
    42   23   24 ar
    43   23   44 1
    44   24   29 1
    45   24   25 ar
    46   25   26 ar
    47   25   27 1
    48   26   45 1
    49   27   28 1
    50   28   29 1
    51   28   46 1
    52   28   47 1
@<TRIPOS>MOLECULE
CHEMBL566415__2
   48    52     0     0     0
SMALL
USER_CHARGES

@<TRIPOS>ATOM
      1 C1          0.9749    1.1343    0.3395 C.3       1 <0>         0.0608
      2 N1          0.5845   -0.2641    0.1441 N.am      1 <0>        -0.5526
      3 C2         -0.6706   -0.7300    0.2871 C.2       1 <0>         0.5444
      4 O1         -1.6525   -0.0871    0.5918 O.2       1 <0>        -0.3892
      5 C3         -0.6155   -2.2137   -0.0076 C.3       1 <0>         0.2375
      6 N2          0.7995   -2.4726   -0.3193 N.pl3     1 <0>        -0.6667
      7 C4          1.4505   -1.2682   -0.2145 C.cat     1 <0>         0.7346
      8 N3          2.7242   -1.1003   -0.4245 N.pl3     1 <0>        -0.7310
      9 C5         -1.0422   -3.0067    1.2007 C.ar      1 <0>        -0.1097
     10 C6         -2.1912   -2.6556    1.8865 C.ar      1 <0>        -0.0931
     11 C7         -2.5886   -3.3790    2.9962 C.ar      1 <0>        -0.0963
     12 C8         -1.8399   -4.4565    3.4252 C.ar      1 <0>        -0.0863
     13 C9         -0.6822   -4.8148    2.7381 C.ar      1 <0>        -0.0247
     14 C10        -0.2890   -4.0853    1.6177 C.ar      1 <0>        -0.0918
     15 C11         0.1267   -5.9721    3.1947 C.ar      1 <0>        -0.1109
     16 C12        -0.2652   -6.7162    4.3109 C.ar      1 <0>        -0.0610
     17 C13         0.5235   -7.7863    4.6964 C.ar      1 <0>        -0.1617
     18 C14         1.6636   -8.0823    3.9713 C.ar      1 <0>         0.1093
     19 N4          2.0082   -7.3613    2.9221 N.ar      1 <0>        -0.4796
     20 C15         1.2858   -6.3379    2.5141 C.ar      1 <0>         0.1087
     21 C16        -1.4852   -2.5478   -1.1922 C.ar      1 <0>        -0.1137
     22 C17        -2.7993   -2.1197   -1.2256 C.ar      1 <0>        -0.0763
     23 C18        -3.6008   -2.4233   -2.3102 C.ar      1 <0>        -0.0895
     24 C19        -3.0884   -3.1584   -3.3669 C.ar      1 <0>         0.0643
     25 C20        -1.7647   -3.5897   -3.3331 C.ar      1 <0>         0.0429
     26 C21        -0.9655   -3.2768   -2.2455 C.ar      1 <0>        -0.0841
     27 O2         -1.5035   -4.2863   -4.4776 O.3       1 <0>        -0.3026
     28 C22        -2.7919   -4.6261   -5.0233 C.3       1 <0>         0.2117
     29 O3         -3.6566   -3.5847   -4.5325 O.3       1 <0>        -0.2981
     30 H1          2.0442    1.2419    0.1572 H         1 <0>         0.0994
     31 H2          0.4224    1.7664   -0.3557 H         1 <0>         0.1115
     32 H3          0.7487    1.4352    1.3625 H         1 <0>         0.1115
     33 H4          3.1195   -0.2195   -0.3295 H         1 <0>         0.4494
     34 H5         -2.7799   -1.8133    1.5543 H         1 <0>         0.1407
     35 H6         -3.4861   -3.1002    3.5283 H         1 <0>         0.1424
     36 H7         -2.1510   -5.0205    4.2922 H         1 <0>         0.1377
     37 H8          0.6056   -4.3610    1.0792 H         1 <0>         0.1225
     38 H9         -1.1605   -6.4624    4.8590 H         1 <0>         0.1407
     39 H10         0.2518   -8.3836    5.5543 H         1 <0>         0.1449
     40 H11         2.2813   -8.9166    4.2692 H         1 <0>         0.1636
     41 H12         1.5978   -5.7743    1.6473 H         1 <0>         0.1490
     42 H13        -3.2006   -1.5472   -0.4025 H         1 <0>         0.1517
     43 H14        -4.6271   -2.0875   -2.3337 H         1 <0>         0.1523
     44 H15         0.0627   -3.6061   -2.2187 H         1 <0>         0.1324
     45 H16        -2.7610   -4.6166   -6.1128 H         1 <0>         0.1429
     46 H17        -3.1184   -5.5994   -4.6569 H         1 <0>         0.0957
     47 H18         1.1943   -3.3264   -0.5561 H         1 <0>         0.4633
     48 H19         3.2781   -1.8558   -0.6761 H         1 <0>         0.4531
@<TRIPOS>BOND
     1    1    2 1
     2    1   30 1
     3    1   31 1
     4    1   32 1
     5    2    7 1
     6    2    3 am
     7    3    4 2
     8    3    5 1
     9    5    6 1
    10    5    9 1
    11    5   21 1
    12    6    7 1
    13    6   47 1
    14    7    8 2
    15    8   33 1
    16    8   48 1
    17    9   14 ar
    18    9   10 ar
    19   10   11 ar
    20   10   34 1
    21   11   12 ar
    22   11   35 1
    23   12   13 ar
    24   12   36 1
    25   13   14 ar
    26   13   15 1
    27   14   37 1
    28   15   20 ar
    29   15   16 ar
    30   16   17 ar
    31   16   38 1
    32   17   18 ar
    33   17   39 1
    34   18   19 ar
    35   18   40 1
    36   19   20 ar
    37   20   41 1
    38   21   26 ar
    39   21   22 ar
    40   22   23 ar
    41   22   42 1
    42   23   24 ar
    43   23   43 1
    44   24   29 1
    45   24   25 ar
    46   25   26 ar
    47   25   27 1
    48   26   44 1
    49   27   28 1
    50   28   29 1
    51   28   45 1
    52   28   46 1
@<TRIPOS>MOLECULE
CHEMBL566415__3
   48    52     0     0     0
SMALL
USER_CHARGES

@<TRIPOS>ATOM
      1 C1         -0.5700    1.4826   -0.3881 C.3       1 <0>         0.0625
      2 N1         -0.3323    0.0443   -0.2426 N.am      1 <0>        -0.5520
      3 C2         -1.3030   -0.8872   -0.1344 C.2       1 <0>         0.5438
      4 O1         -2.5020   -0.7067   -0.1384 O.2       1 <0>        -0.3828
      5 C3         -0.5701   -2.2081   -0.0072 C.3       1 <0>         0.2271
      6 N2          0.8512   -1.8308   -0.0639 N.pl3     1 <0>        -0.6254
      7 C4          0.9083   -0.5423   -0.2036 C.cat     1 <0>         0.7346
      8 N3          2.0854    0.1610   -0.2983 N.pl3     1 <0>        -0.7758
      9 C5         -0.8904   -2.8659    1.3102 C.ar      1 <0>        -0.1110
     10 C6          0.1331   -3.3291    2.1176 C.ar      1 <0>        -0.1017
     11 C7         -0.1536   -3.9338    3.3279 C.ar      1 <0>        -0.0990
     12 C8         -1.4641   -4.0778    3.7370 C.ar      1 <0>        -0.0863
     13 C9         -2.4987   -3.6127    2.9282 C.ar      1 <0>        -0.0152
     14 C10        -2.2038   -3.0000    1.7118 C.ar      1 <0>        -0.0865
     15 C11        -3.9095   -3.7648    3.3626 C.ar      1 <0>        -0.1173
     16 C12        -4.2147   -4.3685    4.5856 C.ar      1 <0>        -0.0598
     17 C13        -5.5461   -4.4866    4.9453 C.ar      1 <0>        -0.1655
     18 C14        -6.5227   -4.0078    4.0908 C.ar      1 <0>         0.1119
     19 N4         -6.2039   -3.4430    2.9425 N.ar      1 <0>        -0.4780
     20 C15        -4.9507   -3.3030    2.5608 C.ar      1 <0>         0.1161
     21 C16        -0.9211   -3.1202   -1.1544 C.ar      1 <0>        -0.1154
     22 C17        -2.2464   -3.3347   -1.4844 C.ar      1 <0>        -0.0756
     23 C18        -2.5735   -4.1700   -2.5361 C.ar      1 <0>        -0.0875
     24 C19        -1.5726   -4.7952   -3.2621 C.ar      1 <0>         0.0666
     25 C20        -0.2376   -4.5793   -2.9296 C.ar      1 <0>         0.0448
     26 C21         0.0829   -3.7362   -1.8779 C.ar      1 <0>        -0.0852
     27 O2          0.5467   -5.2995   -3.7836 O.3       1 <0>        -0.3020
     28 C22        -0.3287   -6.2755   -4.3789 C.3       1 <0>         0.2115
     29 O3         -1.6248   -5.6507   -4.3245 O.3       1 <0>        -0.2970
     30 H1          0.3850    2.0033   -0.4587 H         1 <0>         0.1009
     31 H2         -1.1511    1.6652   -1.2920 H         1 <0>         0.1105
     32 H3         -1.1206    1.8493    0.4782 H         1 <0>         0.1104
     33 H4          2.0673    1.1256   -0.3985 H         1 <0>         0.4448
     34 H5          2.9342   -0.3073   -0.2649 H         1 <0>         0.4472
     35 H6          1.1599   -3.2185    1.8014 H         1 <0>         0.1214
     36 H7          0.6492   -4.2942    3.9539 H         1 <0>         0.1407
     37 H8         -1.6870   -4.5504    4.6822 H         1 <0>         0.1388
     38 H9         -3.0019   -2.6343    1.0827 H         1 <0>         0.1407
     39 H10        -3.4317   -4.7339    5.2334 H         1 <0>         0.1394
     40 H11        -5.8194   -4.9479    5.8828 H         1 <0>         0.1442
     41 H12        -7.5626   -4.0982    4.3682 H         1 <0>         0.1636
     42 H13        -4.7289   -2.8304    1.6153 H         1 <0>         0.1553
     43 H14        -3.0279   -2.8487   -0.9192 H         1 <0>         0.1511
     44 H15        -3.6096   -4.3357   -2.7918 H         1 <0>         0.1540
     45 H16         1.1175   -3.5634   -1.6207 H         1 <0>         0.1319
     46 H17        -0.0400   -6.4694   -5.4120 H         1 <0>         0.1436
     47 H18        -0.3238   -7.1985   -3.7992 H         1 <0>         0.0964
     48 H19         1.6075   -2.4357   -0.0109 H         1 <0>         0.4655
@<TRIPOS>BOND
     1    1    2 1
     2    1   30 1
     3    1   31 1
     4    1   32 1
     5    2    7 1
     6    2    3 am
     7    3    4 2
     8    3    5 1
     9    5    6 1
    10    5    9 1
    11    5   21 1
    12    6    7 2
    13    6   48 1
    14    7    8 1
    15    8   33 1
    16    8   34 1
    17    9   14 ar
    18    9   10 ar
    19   10   11 ar
    20   10   35 1
    21   11   12 ar
    22   11   36 1
    23   12   13 ar
    24   12   37 1
    25   13   14 ar
    26   13   15 1
    27   14   38 1
    28   15   20 ar
    29   15   16 ar
    30   16   17 ar
    31   16   39 1
    32   17   18 ar
    33   17   40 1
    34   18   19 ar
    35   18   41 1
    36   19   20 ar
    37   20   42 1
    38   21   26 ar
    39   21   22 ar
    40   22   23 ar
    41   22   43 1
    42   23   24 ar
    43   23   44 1
    44   24   29 1
    45   24   25 ar
    46   25   26 ar
    47   25   27 1
    48   26   45 1
    49   27   28 1
    50   28   29 1
    51   28   46 1
    52   28   47 1
@<TRIPOS>MOLECULE
CHEMBL560151
   73    77     0     0     0
SMALL
USER_CHARGES

@<TRIPOS>ATOM
      1 C1         -0.0187    1.5258    0.0104 C.3       1 <0>        -0.1725
      2 C2          0.0021   -0.0041    0.0020 C.3       1 <0>         0.1024
      3 N1         -1.3723   -0.5112    0.0124 N.pl3     1 <0>        -0.4707
      4 C3         -2.0690   -0.8761    1.1360 C.2       1 <0>         0.0799
      5 C4         -3.3197   -1.2562    0.7971 C.2       1 <0>        -0.1929
      6 C5         -3.4179   -1.0743   -0.6262 C.ar      1 <0>        -0.0976
      7 C6         -2.1596   -0.6869   -1.1045 C.ar      1 <0>         0.1023
      8 C7         -1.9717   -0.5897   -2.4749 C.ar      1 <0>        -0.0789
      9 C8         -3.0488   -0.7753   -3.3410 C.ar      1 <0>        -0.1019
     10 C9         -4.3384   -1.0350   -2.8447 C.ar      1 <0>        -0.0671
     11 C10        -4.5310   -1.1494   -1.4973 C.ar      1 <0>         0.1706
     12 N2         -5.7827   -1.2682   -0.8874 N.pl3     1 <0>        -0.9508
     13 S1         -6.2155   -2.6416   -0.1224 S.o2      1 <0>         2.6200
     14 O1         -6.1977   -3.6234   -1.1496 O.2       1 <0>        -0.9522
     15 O2         -7.4412   -2.3055    0.5131 O.2       1 <0>        -0.9573
     16 C11        -4.9903   -3.0693    1.1355 C.3       1 <0>        -0.6336
     17 C12        -4.3519   -1.8122    1.7594 C.3       1 <0>        -0.0141
     18 C13        -6.7196   -0.1429   -0.9364 C.3       1 <0>         0.0871
     19 C14        -2.8319   -0.6985   -4.7990 C.2       1 <0>         0.5650
     20 O3         -3.7651   -0.8590   -5.5618 O.2       1 <0>        -0.4991
     21 N3         -1.5994   -0.4505   -5.2848 N.am      1 <0>        -0.7283
     22 C15        -1.3841   -0.3742   -6.7319 C.3       1 <0>         0.1258
     23 H1         -2.0372   -1.0876   -7.2345 H         1 <0>         0.1052
     24 C16        -1.7018    1.0403   -7.2209 C.3       1 <0>        -0.0863
     25 C17        -3.1683    1.3236   -7.0206 C.ar      1 <0>        -0.0681
     26 C18        -4.0740    1.0183   -8.0193 C.ar      1 <0>        -0.1067
     27 C19        -5.4192    1.2781   -7.8355 C.ar      1 <0>        -0.1122
     28 C20        -5.8588    1.8429   -6.6528 C.ar      1 <0>        -0.1190
     29 C21        -4.9532    2.1473   -5.6537 C.ar      1 <0>        -0.1121
     30 C22        -3.6085    1.8835   -5.8358 C.ar      1 <0>        -0.1085
     31 C23         0.0751   -0.7077   -7.0487 C.3       1 <0>         0.0909
     32 H2          0.2353   -0.6510   -8.1254 H         1 <0>         0.1229
     33 C24         0.3927   -2.1222   -6.5596 C.3       1 <0>         0.0948
     34 N4          1.7900   -2.4415   -6.8630 N.pl3     1 <0>        -0.7439
     35 C25         2.3145   -3.6867   -6.5089 C.ar      1 <0>         0.2136
     36 C26         1.5111   -4.6255   -5.8743 C.ar      1 <0>        -0.1987
     37 C27         2.0329   -5.8559   -5.5261 C.ar      1 <0>        -0.0727
     38 C28         3.3535   -6.1536   -5.8080 C.ar      1 <0>        -0.1786
     39 C29         4.1561   -5.2212   -6.4397 C.ar      1 <0>        -0.0728
     40 C30         3.6392   -3.9911   -6.7958 C.ar      1 <0>        -0.1946
     41 O4          0.9313    0.2276   -6.3898 O.3       1 <0>        -0.5453
     42 H3          1.0039    1.9031    0.0027 H         1 <0>         0.0780
     43 H4         -0.5459    1.8868   -0.8726 H         1 <0>         0.0633
     44 H5         -0.5289    1.8773    0.9072 H         1 <0>         0.0643
     45 H6          0.5123   -0.3556   -0.8948 H         1 <0>         0.0887
     46 H7          0.5293   -0.3651    0.8851 H         1 <0>         0.0950
     47 H8         -1.6758   -0.8620    2.1418 H         1 <0>         0.1754
     48 H9         -0.9914   -0.3701   -2.8714 H         1 <0>         0.1239
     49 H10        -5.1696   -1.1488   -3.5248 H         1 <0>         0.1466
     50 H11        -5.4746   -3.6497    1.9208 H         1 <0>         0.1437
     51 H12        -4.2080   -3.6754    0.6784 H         1 <0>         0.1370
     52 H13        -3.8689   -2.0765    2.7001 H         1 <0>         0.0967
     53 H14        -5.1227   -1.0632    1.9407 H         1 <0>         0.0836
     54 H15        -7.3445   -0.2289   -1.8254 H         1 <0>         0.0644
     55 H16        -7.3494   -0.1555   -0.0469 H         1 <0>         0.0950
     56 H17        -6.1618    0.7928   -0.9735 H         1 <0>         0.0763
     57 H18        -0.8550   -0.3224   -4.6763 H         1 <0>         0.3911
     58 H19        -1.1118    1.7614   -6.6552 H         1 <0>         0.0809
     59 H20        -1.4573    1.1220   -8.2800 H         1 <0>         0.0830
     60 H21        -3.7305    0.5771   -8.9433 H         1 <0>         0.1142
     61 H22        -6.1267    1.0403   -8.6161 H         1 <0>         0.1163
     62 H23        -6.9097    2.0465   -6.5095 H         1 <0>         0.1155
     63 H24        -5.2966    2.5889   -4.7299 H         1 <0>         0.1132
     64 H25        -2.9015    2.1179   -5.0538 H         1 <0>         0.1078
     65 H26         0.2326   -2.1789   -5.4830 H         1 <0>         0.0627
     66 H27        -0.2604   -2.8356   -7.0622 H         1 <0>         0.0716
     67 H28         2.3508   -1.7882   -7.3097 H         1 <0>         0.4038
     68 H29         0.4798   -4.3934   -5.6532 H         1 <0>         0.1172
     69 H30         1.4088   -6.5863   -5.0326 H         1 <0>         0.1195
     70 H31         3.7592   -7.1162   -5.5340 H         1 <0>         0.1177
     71 H32         5.1871   -5.4569   -6.6584 H         1 <0>         0.1205
     72 H33         4.2652   -3.2650   -7.2931 H         1 <0>         0.1188
     73 H34         0.8421    0.2318   -5.4269 H         1 <0>         0.3703
@<TRIPOS>BOND
     1    1    2 1
     2    1   42 1
     3    1   43 1
     4    1   44 1
     5    2    3 1
     6    2   45 1
     7    2   46 1
     8    3    7 1
     9    3    4 1
    10    4    5 2
    11    4   47 1
    12    5   17 1
    13    5    6 1
    14    6   11 ar
    15    6    7 ar
    16    7    8 ar
    17    8    9 ar
    18    8   48 1
    19    9   10 ar
    20    9   19 1
    21   10   11 ar
    22   10   49 1
    23   11   12 1
    24   12   13 1
    25   12   18 1
    26   13   14 2
    27   13   15 2
    28   13   16 1
    29   16   17 1
    30   16   50 1
    31   16   51 1
    32   17   52 1
    33   17   53 1
    34   18   54 1
    35   18   55 1
    36   18   56 1
    37   19   20 2
    38   19   21 am
    39   21   22 1
    40   21   57 1
    41   22   23 1
    42   22   24 1
    43   22   31 1
    44   24   25 1
    45   24   58 1
    46   24   59 1
    47   25   30 ar
    48   25   26 ar
    49   26   27 ar
    50   26   60 1
    51   27   28 ar
    52   27   61 1
    53   28   29 ar
    54   28   62 1
    55   29   30 ar
    56   29   63 1
    57   30   64 1
    58   31   32 1
    59   31   33 1
    60   31   41 1
    61   33   34 1
    62   33   65 1
    63   33   66 1
    64   34   35 1
    65   34   67 1
    66   35   40 ar
    67   35   36 ar
    68   36   37 ar
    69   36   68 1
    70   37   38 ar
    71   37   69 1
    72   38   39 ar
    73   38   70 1
    74   39   40 ar
    75   39   71 1
    76   40   72 1
    77   41   73 1
@<TRIPOS>MOLECULE
CHEMBL1092788
   45    48     0     0     0
SMALL
USER_CHARGES

@<TRIPOS>ATOM
      1 C1         -0.5550    1.4795   -0.4167 C.3       1 <0>         0.0623
      2 N1         -0.3232    0.0418   -0.2569 N.am      1 <0>        -0.5522
      3 C2         -1.2977   -0.8864   -0.1546 C.2       1 <0>         0.5431
      4 O1         -2.4961   -0.7028   -0.1764 O.2       1 <0>        -0.3809
      5 C3         -0.5701   -2.2081   -0.0072 C.3       1 <0>         0.2192
      6 N2          0.8528   -1.8348   -0.0475 N.pl3     1 <0>        -0.6252
      7 C4          0.9153   -0.5476   -0.1963 C.cat     1 <0>         0.7348
      8 N3          2.0954    0.1519   -0.2805 N.pl3     1 <0>        -0.7741
      9 C5         -0.9100   -2.8548    1.3108 C.ar      1 <0>        -0.0686
     10 C6          0.0887   -3.3330    2.1453 C.ar      1 <0>        -0.1583
     11 C7         -0.2611   -3.9201    3.3465 C.ar      1 <0>         0.1207
     12 N4         -1.5266   -4.0281    3.7012 N.ar      1 <0>        -0.4608
     13 C8         -2.5024   -3.5847    2.9330 C.ar      1 <0>         0.1253
     14 C9         -2.2286   -2.9806    1.7205 C.ar      1 <0>        -0.1489
     15 C10        -0.9079   -3.1283   -1.1519 C.ar      1 <0>        -0.1202
     16 C11         0.1053   -3.7430   -1.8658 C.ar      1 <0>        -0.0941
     17 C12        -0.1975   -4.5886   -2.9174 C.ar      1 <0>        -0.1013
     18 C13        -1.5138   -4.8237   -3.2604 C.ar      1 <0>        -0.0675
     19 C14        -2.5382   -4.2076   -2.5447 C.ar      1 <0>        -0.0301
     20 C15        -2.2274   -3.3605   -1.4825 C.ar      1 <0>        -0.0735
     21 C16        -3.9548   -4.4560   -2.9090 C.ar      1 <0>        -0.0684
     22 C17        -4.8770   -4.8124   -1.9273 C.ar      1 <0>        -0.1124
     23 C18        -6.1954   -5.0422   -2.2722 C.ar      1 <0>         0.0992
     24 C19        -6.6007   -4.9192   -3.5915 C.ar      1 <0>        -0.1125
     25 C20        -5.6900   -4.5659   -4.5696 C.ar      1 <0>        -0.1174
     26 C21        -4.3696   -4.3280   -4.2349 C.ar      1 <0>         0.1050
     27 F1         -3.4816   -3.9777   -5.1910 F         1 <0>        -0.1275
     28 F2         -7.0907   -5.3878   -1.3213 F         1 <0>        -0.1269
     29 H1          0.4022    1.9972   -0.4783 H         1 <0>         0.1019
     30 H2         -1.1233    1.6565   -1.3298 H         1 <0>         0.1107
     31 H3         -1.1164    1.8543    0.4391 H         1 <0>         0.1106
     32 H4          2.0812    1.1157   -0.3884 H         1 <0>         0.4453
     33 H5          2.9424   -0.3183   -0.2319 H         1 <0>         0.4477
     34 H6          1.1269   -3.2480    1.8600 H         1 <0>         0.1334
     35 H7          0.5109   -4.2951    4.0021 H         1 <0>         0.1704
     36 H8         -3.5271   -3.6912    3.2569 H         1 <0>         0.1733
     37 H9         -3.0319   -2.6150    1.0980 H         1 <0>         0.1495
     38 H10         1.1365   -3.5616   -1.6010 H         1 <0>         0.1226
     39 H11         0.5973   -5.0657   -3.4715 H         1 <0>         0.1433
     40 H12        -1.7491   -5.4837   -4.0823 H         1 <0>         0.1401
     41 H13        -3.0176   -2.8836   -0.9217 H         1 <0>         0.1410
     42 H14        -4.5621   -4.9092   -0.8988 H         1 <0>         0.1473
     43 H15        -7.6318   -5.1004   -3.8567 H         1 <0>         0.1538
     44 H16        -6.0111   -4.4718   -5.5964 H         1 <0>         0.1545
     45 H17         1.6068   -2.4413    0.0205 H         1 <0>         0.4659
@<TRIPOS>BOND
     1    1    2 1
     2    1   29 1
     3    1   30 1
     4    1   31 1
     5    2    7 1
     6    2    3 am
     7    3    4 2
     8    3    5 1
     9    5    6 1
    10    5    9 1
    11    5   15 1
    12    6    7 2
    13    6   45 1
    14    7    8 1
    15    8   32 1
    16    8   33 1
    17    9   14 ar
    18    9   10 ar
    19   10   11 ar
    20   10   34 1
    21   11   12 ar
    22   11   35 1
    23   12   13 ar
    24   13   14 ar
    25   13   36 1
    26   14   37 1
    27   15   20 ar
    28   15   16 ar
    29   16   17 ar
    30   16   38 1
    31   17   18 ar
    32   17   39 1
    33   18   19 ar
    34   18   40 1
    35   19   20 ar
    36   19   21 1
    37   20   41 1
    38   21   26 ar
    39   21   22 ar
    40   22   23 ar
    41   22   42 1
    42   23   24 ar
    43   23   28 1
    44   24   25 ar
    45   24   43 1
    46   25   26 ar
    47   25   44 1
    48   26   27 1
@<TRIPOS>MOLECULE
CHEMBL1092788__1
   45    48     0     0     0
SMALL
USER_CHARGES

@<TRIPOS>ATOM
      1 C1         -0.5527    1.4739   -0.5147 C.3       1 <0>         0.0605
      2 N1         -0.3231    0.0378   -0.3378 N.am      1 <0>        -0.5525
      3 C2         -1.2978   -0.8684   -0.1345 C.2       1 <0>         0.5435
      4 O1         -2.4886   -0.6500   -0.0667 O.2       1 <0>        -0.3867
      5 C3         -0.6155   -2.2137   -0.0076 C.3       1 <0>         0.2298
      6 N2          0.8168   -1.9140   -0.1661 N.pl3     1 <0>        -0.6660
      7 C4          0.9139   -0.5587   -0.3639 C.cat     1 <0>         0.7343
      8 N3          2.0338    0.0788   -0.5490 N.pl3     1 <0>        -0.7300
      9 C5         -0.8811   -2.8128    1.3494 C.ar      1 <0>        -0.0678
     10 C6          0.1575   -3.3123    2.1203 C.ar      1 <0>        -0.1570
     11 C7         -0.1242   -3.8544    3.3599 C.ar      1 <0>         0.1181
     12 N4         -1.3627   -3.9000    3.8105 N.ar      1 <0>        -0.4626
     13 C8         -2.3749   -3.4346    3.1049 C.ar      1 <0>         0.1232
     14 C9         -2.1691   -2.8725    1.8592 C.ar      1 <0>        -0.1493
     15 C10        -1.0820   -3.1454   -1.0963 C.ar      1 <0>        -0.1183
     16 C11        -2.4357   -3.3386   -1.3067 C.ar      1 <0>        -0.0839
     17 C12        -2.8709   -4.1922   -2.3040 C.ar      1 <0>        -0.0981
     18 C13        -1.9556   -4.8565   -3.0955 C.ar      1 <0>        -0.0686
     19 C14        -0.5911   -4.6653   -2.8884 C.ar      1 <0>        -0.0387
     20 C15        -0.1583   -3.7999   -1.8854 C.ar      1 <0>        -0.0818
     21 C16         0.3974   -5.3769   -3.7356 C.ar      1 <0>        -0.0651
     22 C17         1.4367   -4.6721   -4.3393 C.ar      1 <0>        -0.1175
     23 C18         2.3550   -5.3401   -5.1271 C.ar      1 <0>         0.0960
     24 C19         2.2432   -6.7080   -5.3174 C.ar      1 <0>        -0.1132
     25 C20         1.2141   -7.4122   -4.7209 C.ar      1 <0>        -0.1158
     26 C21         0.2930   -6.7551   -3.9260 C.ar      1 <0>         0.1074
     27 F1         -0.7093   -7.4453   -3.3394 F         1 <0>        -0.1243
     28 F2          3.3632   -4.6579   -5.7130 F         1 <0>        -0.1293
     29 H1          0.4015    1.9784   -0.6667 H         1 <0>         0.1002
     30 H2         -1.1915    1.6354   -1.3831 H         1 <0>         0.1120
     31 H3         -1.0390    1.8762    0.3739 H         1 <0>         0.1119
     32 H4          2.0288    1.0399   -0.6799 H         1 <0>         0.4499
     33 H5          1.1738   -3.2785    1.7565 H         1 <0>         0.1332
     34 H6          0.6791   -4.2456    3.9665 H         1 <0>         0.1689
     35 H7         -3.3758   -3.4895    3.5069 H         1 <0>         0.1721
     36 H8         -3.0015   -2.4885    1.2882 H         1 <0>         0.1500
     37 H9         -3.1553   -2.8212   -0.6895 H         1 <0>         0.1401
     38 H10        -3.9288   -4.3396   -2.4636 H         1 <0>         0.1448
     39 H11        -2.2965   -5.5234   -3.8736 H         1 <0>         0.1388
     40 H12         0.8982   -3.6450   -1.7232 H         1 <0>         0.1236
     41 H13         1.5243   -3.6058   -4.1922 H         1 <0>         0.1423
     42 H14         2.9626   -7.2259   -5.9344 H         1 <0>         0.1536
     43 H15         1.1314   -8.4783   -4.8729 H         1 <0>         0.1553
     44 H16         1.5487   -2.5501   -0.1398 H         1 <0>         0.4640
     45 H17         2.8732   -0.4072   -0.5559 H         1 <0>         0.4532
@<TRIPOS>BOND
     1    1    2 1
     2    1   29 1
     3    1   30 1
     4    1   31 1
     5    2    7 1
     6    2    3 am
     7    3    4 2
     8    3    5 1
     9    5    6 1
    10    5    9 1
    11    5   15 1
    12    6    7 1
    13    6   44 1
    14    7    8 2
    15    8   32 1
    16    8   45 1
    17    9   14 ar
    18    9   10 ar
    19   10   11 ar
    20   10   33 1
    21   11   12 ar
    22   11   34 1
    23   12   13 ar
    24   13   14 ar
    25   13   35 1
    26   14   36 1
    27   15   20 ar
    28   15   16 ar
    29   16   17 ar
    30   16   37 1
    31   17   18 ar
    32   17   38 1
    33   18   19 ar
    34   18   39 1
    35   19   20 ar
    36   19   21 1
    37   20   40 1
    38   21   26 ar
    39   21   22 ar
    40   22   23 ar
    41   22   41 1
    42   23   24 ar
    43   23   28 1
    44   24   25 ar
    45   24   42 1
    46   25   26 ar
    47   25   43 1
    48   26   27 1
@<TRIPOS>MOLECULE
CHEMBL142715
   68    72     0     0     0
SMALL
USER_CHARGES

@<TRIPOS>ATOM
      1 C1         -0.0167    1.3790    0.0096 C.ar      1 <0>        -0.1137
      2 C2          1.1687    2.0919    0.0021 C.ar      1 <0>        -0.1175
      3 C3          2.3774    1.4258   -0.0129 C.ar      1 <0>        -0.1080
      4 C4          2.4022    0.0327   -0.0206 C.ar      1 <0>        -0.0553
      5 C5          1.2051   -0.6804   -0.0130 C.ar      1 <0>        -0.1080
      6 C6          0.0021   -0.0041    0.0020 C.ar      1 <0>        -0.1174
      7 C7          3.6987   -0.6889   -0.0373 C.ar      1 <0>        -0.0270
      8 C8          4.8958    0.0241   -0.0395 C.ar      1 <0>        -0.1143
      9 C9          6.0988   -0.6522   -0.0546 C.ar      1 <0>        -0.0897
     10 C10         6.1176   -2.0352   -0.0680 C.ar      1 <0>        -0.1030
     11 C11         4.9322   -2.7481   -0.0663 C.ar      1 <0>        -0.0894
     12 C12         3.7235   -2.0821   -0.0450 C.ar      1 <0>        -0.1141
     13 C13         7.4343   -2.7680   -0.0849 C.3       1 <0>         0.1040
     14 O1          7.8606   -3.0125    1.2569 O.3       1 <0>        -0.3065
     15 C14         9.0391   -3.6694    1.4199 C.ar      1 <0>         0.1396
     16 C15         9.7751   -4.0665    0.3126 C.ar      1 <0>        -0.2078
     17 C16        10.9679   -4.7343    0.4888 C.ar      1 <0>        -0.0765
     18 C17        11.4415   -5.0126    1.7652 C.ar      1 <0>        -0.1282
     19 C18        10.7154   -4.6149    2.8657 C.ar      1 <0>        -0.0348
     20 C19         9.5144   -3.9408    2.6913 C.ar      1 <0>        -0.1551
     21 C20        11.1774   -4.8692    4.2768 C.3       1 <0>        -0.0840
     22 C21        12.2492   -5.9569    4.3037 C.3       1 <0>        -0.1130
     23 C22        13.3336   -5.5932    3.2828 C.3       1 <0>        -0.0831
     24 C23        12.7485   -5.7527    1.8811 C.3       1 <0>        -0.0704
     25 C24        14.5331   -6.5281    3.4500 C.3       1 <0>        -0.1436
     26 C25        15.6603   -6.0835    2.5158 C.3       1 <0>        -0.0136
     27 N1         16.8121   -6.9811    2.6764 N.4       1 <0>        -0.3827
     28 C26        17.3482   -6.8482    4.0363 C.3       1 <0>        -0.0119
     29 C27        18.4970   -7.8395    4.2348 C.3       1 <0>        -0.1460
     30 C28        19.6022   -7.5421    3.2173 C.3       1 <0>        -0.1396
     31 C29        19.0141   -7.6105    1.8050 C.3       1 <0>        -0.1464
     32 C30        17.8462   -6.6278    1.6965 C.3       1 <0>        -0.0069
     33 H1         -0.9603    1.9042    0.0260 H         1 <0>         0.1254
     34 H2          1.1483    3.1717    0.0077 H         1 <0>         0.1264
     35 H3          3.3023    1.9834   -0.0191 H         1 <0>         0.1255
     36 H4          1.2186   -1.7603   -0.0193 H         1 <0>         0.1256
     37 H5         -0.9264   -0.5558    0.0082 H         1 <0>         0.1265
     38 H6          4.8823    1.1040   -0.0299 H         1 <0>         0.1301
     39 H7          7.0273   -0.1005   -0.0564 H         1 <0>         0.1262
     40 H8          4.9525   -3.8278   -0.0771 H         1 <0>         0.1265
     41 H9          2.7986   -2.6396   -0.0392 H         1 <0>         0.1302
     42 H10         7.3150   -3.7174   -0.6069 H         1 <0>         0.0726
     43 H11         8.1807   -2.1622   -0.5986 H         1 <0>         0.0724
     44 H12         9.4147   -3.8536   -0.6830 H         1 <0>         0.1300
     45 H13        11.5396   -5.0446   -0.3733 H         1 <0>         0.1225
     46 H14         8.9446   -3.6292    3.5543 H         1 <0>         0.1314
     47 H15        11.5889   -3.9489    4.6915 H         1 <0>         0.0816
     48 H16        10.3279   -5.1867    4.8814 H         1 <0>         0.0836
     49 H17        12.6877   -6.0155    5.2999 H         1 <0>         0.0732
     50 H18        11.8046   -6.9168    4.0408 H         1 <0>         0.0721
     51 H19        13.6484   -4.5606    3.4337 H         1 <0>         0.0860
     52 H20        12.5815   -6.8108    1.6796 H         1 <0>         0.0759
     53 H21        13.4527   -5.3551    1.1502 H         1 <0>         0.0693
     54 H22        14.8811   -6.4916    4.4823 H         1 <0>         0.0899
     55 H23        14.2367   -7.5473    3.2023 H         1 <0>         0.0888
     56 H24        15.3124   -6.1200    1.4835 H         1 <0>         0.1315
     57 H25        15.9568   -5.0643    2.7635 H         1 <0>         0.1299
     58 H26        17.7156   -5.8327    4.1838 H         1 <0>         0.1279
     59 H27        16.5597   -7.0571    4.7592 H         1 <0>         0.1314
     60 H28        18.8949   -7.7380    5.2445 H         1 <0>         0.1114
     61 H29        18.1306   -8.8554    4.0877 H         1 <0>         0.0871
     62 H30        20.0042   -6.5449    3.3968 H         1 <0>         0.0815
     63 H31        20.3978   -8.2804    3.3171 H         1 <0>         0.0939
     64 H32        19.7817   -7.3454    1.0779 H         1 <0>         0.1117
     65 H33        18.6585   -8.6218    1.6074 H         1 <0>         0.0873
     66 H34        17.4253   -6.6739    0.6921 H         1 <0>         0.1293
     67 H35        18.2030   -5.6170    1.8939 H         1 <0>         0.1278
     68 H36        16.5180   -7.9343    2.5246 H         1 <0>         0.4218
@<TRIPOS>BOND
     1    1    6 ar
     2    1    2 ar
     3    1   33 1
     4    2    3 ar
     5    2   34 1
     6    3    4 ar
     7    3   35 1
     8    4    5 ar
     9    4    7 1
    10    5    6 ar
    11    5   36 1
    12    6   37 1
    13    7   12 ar
    14    7    8 ar
    15    8    9 ar
    16    8   38 1
    17    9   10 ar
    18    9   39 1
    19   10   11 ar
    20   10   13 1
    21   11   12 ar
    22   11   40 1
    23   12   41 1
    24   13   14 1
    25   13   42 1
    26   13   43 1
    27   14   15 1
    28   15   20 ar
    29   15   16 ar
    30   16   17 ar
    31   16   44 1
    32   17   18 ar
    33   17   45 1
    34   18   24 1
    35   18   19 ar
    36   19   20 ar
    37   19   21 1
    38   20   46 1
    39   21   22 1
    40   21   47 1
    41   21   48 1
    42   22   23 1
    43   22   49 1
    44   22   50 1
    45   23   24 1
    46   23   25 1
    47   23   51 1
    48   24   52 1
    49   24   53 1
    50   25   26 1
    51   25   54 1
    52   25   55 1
    53   26   27 1
    54   26   56 1
    55   26   57 1
    56   27   32 1
    57   27   28 1
    58   27   68 1
    59   28   29 1
    60   28   58 1
    61   28   59 1
    62   29   30 1
    63   29   60 1
    64   29   61 1
    65   30   31 1
    66   30   62 1
    67   30   63 1
    68   31   32 1
    69   31   64 1
    70   31   65 1
    71   32   66 1
    72   32   67 1
@<TRIPOS>MOLECULE
CHEMBL142715__1
   68    72     0     0     0
SMALL
USER_CHARGES

@<TRIPOS>ATOM
      1 C1         -0.0167    1.3790    0.0096 C.ar      1 <0>        -0.1137
      2 C2          1.1687    2.0919    0.0021 C.ar      1 <0>        -0.1174
      3 C3          2.3774    1.4258   -0.0129 C.ar      1 <0>        -0.1080
      4 C4          2.4022    0.0327   -0.0206 C.ar      1 <0>        -0.0553
      5 C5          1.2051   -0.6804   -0.0130 C.ar      1 <0>        -0.1080
      6 C6          0.0021   -0.0041    0.0020 C.ar      1 <0>        -0.1175
      7 C7          3.6987   -0.6889   -0.0373 C.ar      1 <0>        -0.0269
      8 C8          4.8958    0.0241   -0.0395 C.ar      1 <0>        -0.1141
      9 C9          6.0988   -0.6522   -0.0546 C.ar      1 <0>        -0.0895
     10 C10         6.1176   -2.0352   -0.0680 C.ar      1 <0>        -0.1031
     11 C11         4.9322   -2.7481   -0.0663 C.ar      1 <0>        -0.0896
     12 C12         3.7235   -2.0821   -0.0450 C.ar      1 <0>        -0.1143
     13 C13         7.4343   -2.7680   -0.0849 C.3       1 <0>         0.1040
     14 O1          7.8606   -3.0125    1.2569 O.3       1 <0>        -0.3065
     15 C14         9.0391   -3.6694    1.4199 C.ar      1 <0>         0.1397
     16 C15         9.7751   -4.0665    0.3126 C.ar      1 <0>        -0.2079
     17 C16        10.9708   -4.7291    0.4889 C.ar      1 <0>        -0.0765
     18 C17        11.4454   -5.0056    1.7653 C.ar      1 <0>        -0.1284
     19 C18        10.7143   -4.6170    2.8657 C.ar      1 <0>        -0.0346
     20 C19         9.5144   -3.9408    2.6913 C.ar      1 <0>        -0.1550
     21 C20        11.1612   -4.8984    4.2765 C.3       1 <0>        -0.0842
     22 C21        12.6504   -5.2351    4.3115 C.3       1 <0>        -0.1130
     23 C22        12.9233   -6.3312    3.2748 C.3       1 <0>        -0.0834
     24 C23        12.7629   -5.7269    1.8813 C.3       1 <0>        -0.0697
     25 C24        14.3490   -6.8594    3.4464 C.3       1 <0>        -0.1436
     26 C25        14.5750   -8.0358    2.4947 C.3       1 <0>        -0.0137
     27 N1         15.9438   -8.5429    2.6595 N.4       1 <0>        -0.3826
     28 C26        16.9001   -7.5090    2.2461 C.3       1 <0>        -0.0121
     29 C27        18.3278   -8.0018    2.4918 C.3       1 <0>        -0.1459
     30 C28        18.5689   -9.2768    1.6785 C.3       1 <0>        -0.1396
     31 C29        17.5193  -10.3229    2.0646 C.3       1 <0>        -0.1464
     32 C30        16.1216   -9.7441    1.8348 C.3       1 <0>        -0.0069
     33 H1         -0.9603    1.9042    0.0260 H         1 <0>         0.1254
     34 H2          1.1483    3.1717    0.0077 H         1 <0>         0.1265
     35 H3          3.3023    1.9834   -0.0191 H         1 <0>         0.1256
     36 H4          1.2186   -1.7603   -0.0193 H         1 <0>         0.1255
     37 H5         -0.9264   -0.5558    0.0082 H         1 <0>         0.1264
     38 H6          4.8823    1.1040   -0.0299 H         1 <0>         0.1302
     39 H7          7.0273   -0.1005   -0.0564 H         1 <0>         0.1265
     40 H8          4.9525   -3.8278   -0.0771 H         1 <0>         0.1262
     41 H9          2.7986   -2.6396   -0.0392 H         1 <0>         0.1301
     42 H10         7.3150   -3.7174   -0.6069 H         1 <0>         0.0724
     43 H11         8.1807   -2.1622   -0.5986 H         1 <0>         0.0726
     44 H12         9.4124   -3.8576   -0.6830 H         1 <0>         0.1300
     45 H13        11.5440   -5.0367   -0.3732 H         1 <0>         0.1222
     46 H14         8.9455   -3.6277    3.5543 H         1 <0>         0.1315
     47 H15        10.9768   -4.0193    4.8940 H         1 <0>         0.0836
     48 H16        10.5930   -5.7403    4.6722 H         1 <0>         0.0819
     49 H17        13.2334   -4.3467    4.0685 H         1 <0>         0.0717
     50 H18        12.9226   -5.5930    5.3044 H         1 <0>         0.0736
     51 H19        12.2112   -7.1459    3.4059 H         1 <0>         0.0863
     52 H20        12.8037   -6.5227    1.1376 H         1 <0>         0.0690
     53 H21        13.5751   -5.0233    1.6990 H         1 <0>         0.0753
     54 H22        15.0604   -6.0657    3.2183 H         1 <0>         0.0889
     55 H23        14.4922   -7.1912    4.4747 H         1 <0>         0.0899
     56 H24        13.8636   -8.8295    2.7228 H         1 <0>         0.1315
     57 H25        14.4318   -7.7040    1.4664 H         1 <0>         0.1300
     58 H26        16.7675   -7.2951    1.1856 H         1 <0>         0.1277
     59 H27        16.7252   -6.6012    2.8235 H         1 <0>         0.1314
     60 H28        19.0364   -7.2334    2.1825 H         1 <0>         0.1114
     61 H29        18.4616   -8.2157    3.5522 H         1 <0>         0.0873
     62 H30        18.4855   -9.0521    0.6152 H         1 <0>         0.0814
     63 H31        19.5651   -9.6634    1.8935 H         1 <0>         0.0939
     64 H32        17.6500  -11.2137    1.4501 H         1 <0>         0.1117
     65 H33        17.6364  -10.5850    3.1162 H         1 <0>         0.0873
     66 H34        15.3719  -10.4865    2.1086 H         1 <0>         0.1295
     67 H35        16.0055   -9.4826    0.7830 H         1 <0>         0.1275
     68 H36        16.1009   -8.7754    3.6287 H         1 <0>         0.4218
@<TRIPOS>BOND
     1    1    6 ar
     2    1    2 ar
     3    1   33 1
     4    2    3 ar
     5    2   34 1
     6    3    4 ar
     7    3   35 1
     8    4    5 ar
     9    4    7 1
    10    5    6 ar
    11    5   36 1
    12    6   37 1
    13    7   12 ar
    14    7    8 ar
    15    8    9 ar
    16    8   38 1
    17    9   10 ar
    18    9   39 1
    19   10   11 ar
    20   10   13 1
    21   11   12 ar
    22   11   40 1
    23   12   41 1
    24   13   14 1
    25   13   42 1
    26   13   43 1
    27   14   15 1
    28   15   20 ar
    29   15   16 ar
    30   16   17 ar
    31   16   44 1
    32   17   18 ar
    33   17   45 1
    34   18   24 1
    35   18   19 ar
    36   19   20 ar
    37   19   21 1
    38   20   46 1
    39   21   22 1
    40   21   47 1
    41   21   48 1
    42   22   23 1
    43   22   49 1
    44   22   50 1
    45   23   24 1
    46   23   25 1
    47   23   51 1
    48   24   52 1
    49   24   53 1
    50   25   26 1
    51   25   54 1
    52   25   55 1
    53   26   27 1
    54   26   56 1
    55   26   57 1
    56   27   32 1
    57   27   28 1
    58   27   68 1
    59   28   29 1
    60   28   58 1
    61   28   59 1
    62   29   30 1
    63   29   60 1
    64   29   61 1
    65   30   31 1
    66   30   62 1
    67   30   63 1
    68   31   32 1
    69   31   64 1
    70   31   65 1
    71   32   66 1
    72   32   67 1
@<TRIPOS>MOLECULE
CHEMBL1209286
   76    79     0     0     0
SMALL
USER_CHARGES

@<TRIPOS>ATOM
      1 C1         -6.2568   -4.2617    4.6975 C.3       1 <0>        -0.1822
      2 C2         -4.9862   -3.5677    4.2790 C.2       1 <0>         0.5120
      3 O1         -3.9721   -4.2106    4.1080 O.2       1 <0>        -0.5323
      4 N1         -4.9768   -2.2326    4.0947 N.am      1 <0>        -0.7322
      5 C3         -3.7417   -1.5580    3.6878 C.3       1 <0>         0.1325
      6 H1         -3.9273   -0.4885    3.5894 H         1 <0>         0.1050
      7 C4         -2.6604   -1.7929    4.7445 C.3       1 <0>        -0.0988
      8 C5         -3.0685   -1.1325    6.0362 C.ar      1 <0>        -0.0285
      9 C6         -2.7089    0.1785    6.2851 C.ar      1 <0>        -0.1648
     10 C7         -3.0829    0.7862    7.4719 C.ar      1 <0>         0.1398
     11 C8         -3.8176    0.0802    8.4088 C.ar      1 <0>        -0.1922
     12 C9         -4.1775   -1.2327    8.1582 C.ar      1 <0>         0.1391
     13 C10        -3.8068   -1.8366    6.9685 C.ar      1 <0>        -0.1581
     14 F1         -4.8946   -1.9229    9.0717 F         1 <0>        -0.1257
     15 F2         -2.7305    2.0675    7.7153 F         1 <0>        -0.1255
     16 C11        -3.2725   -2.1199    2.3443 C.3       1 <0>         0.0680
     17 H2         -3.0868   -3.1895    2.4427 H         1 <0>         0.1456
     18 C12        -4.3537   -1.8850    1.2876 C.3       1 <0>        -0.0558
     19 N2         -3.9560   -2.5287    0.0285 N.4       1 <0>        -0.4993
     20 C13        -4.9314   -2.1993   -1.0193 C.3       1 <0>         0.1157
     21 C14        -4.5276   -2.8853   -2.3259 C.3       1 <0>        -0.1313
     22 C15        -4.4953   -4.4007   -2.1174 C.3       1 <0>        -0.1365
     23 C16        -5.8828   -4.8869   -1.6937 C.3       1 <0>        -0.1324
     24 C17        -6.2866   -4.2008   -0.3872 C.3       1 <0>        -0.1353
     25 C18        -6.3188   -2.6854   -0.5957 C.3       1 <0>        -0.1365
     26 C19        -4.9631   -0.7067   -1.2247 C.ar      1 <0>        -0.1193
     27 C20        -3.8480    0.0556   -0.9298 C.ar      1 <0>        -0.1365
     28 C21        -3.8771    1.4245   -1.1182 C.ar      1 <0>        -0.0933
     29 C22        -5.0213    2.0316   -1.6019 C.ar      1 <0>        -0.0931
     30 C23        -6.1358    1.2695   -1.8975 C.ar      1 <0>        -0.0558
     31 C24        -6.1052   -0.1004   -1.7131 C.ar      1 <0>        -0.0845
     32 C25        -7.3830    1.9312   -2.4242 C.3       1 <0>        -0.0879
     33 C26        -7.0637    2.6102   -3.7724 C.3       1 <0>        -0.1488
     34 C27        -8.3557    2.9121   -4.4780 C.3       1 <0>         0.0589
     35 O2         -8.8863    4.2213   -4.1650 O.3       1 <0>        -0.3992
     36 C28        -8.7808    4.6230   -2.7817 C.3       1 <0>         0.2157
     37 O3         -9.0542    3.5807   -1.8896 O.3       1 <0>        -0.3725
     38 C29        -7.8637    2.9044   -1.4374 C.3       1 <0>         0.0589
     39 O4         -2.0677   -1.4618    1.9474 O.3       1 <0>        -0.5422
     40 H3         -6.3114   -4.2945    5.7856 H         1 <0>         0.1026
     41 H4         -7.1150   -3.7149    4.3070 H         1 <0>         0.0835
     42 H5         -6.2629   -5.2776    4.3026 H         1 <0>         0.0998
     43 H6         -5.7879   -1.7184    4.2315 H         1 <0>         0.4118
     44 H7         -2.5376   -2.8637    4.9069 H         1 <0>         0.1084
     45 H8         -1.7178   -1.3670    4.4007 H         1 <0>         0.1014
     46 H9         -2.1357    0.7292    5.5540 H         1 <0>         0.1428
     47 H10        -4.1094    0.5532    9.3348 H         1 <0>         0.1524
     48 H11        -4.0914   -2.8596    6.7709 H         1 <0>         0.1359
     49 H12        -5.2964   -2.3109    1.6315 H         1 <0>         0.1417
     50 H13        -4.4766   -0.8142    1.1253 H         1 <0>         0.1407
     51 H14        -3.0433   -2.1968   -0.2452 H         1 <0>         0.4277
     52 H15        -5.2513   -2.6409   -3.1034 H         1 <0>         0.1135
     53 H16        -3.5391   -2.5390   -2.6278 H         1 <0>         0.0908
     54 H17        -4.2076   -4.8895   -3.0482 H         1 <0>         0.0961
     55 H18        -3.7716   -4.6452   -1.3399 H         1 <0>         0.0580
     56 H19        -6.6065   -4.6424   -2.4712 H         1 <0>         0.0808
     57 H20        -5.8598   -5.9665   -1.5452 H         1 <0>         0.0830
     58 H21        -7.2750   -4.5471   -0.0853 H         1 <0>         0.0950
     59 H22        -5.5628   -4.4453    0.3903 H         1 <0>         0.0569
     60 H23        -6.6065   -2.1966    0.3352 H         1 <0>         0.0895
     61 H24        -7.0426   -2.4410   -1.3732 H         1 <0>         0.1139
     62 H25        -2.9543   -0.4186   -0.5520 H         1 <0>         0.1189
     63 H26        -3.0063    2.0200   -0.8872 H         1 <0>         0.1382
     64 H27        -5.0443    3.1013   -1.7484 H         1 <0>         0.1335
     65 H28        -6.9748   -0.6964   -1.9477 H         1 <0>         0.1360
     66 H29        -8.1503    1.1729   -2.5805 H         1 <0>         0.0960
     67 H30        -6.5187    3.5373   -3.5948 H         1 <0>         0.0787
     68 H31        -6.4603    1.9404   -4.3852 H         1 <0>         0.0880
     69 H32        -8.1898    2.8499   -5.5535 H         1 <0>         0.0940
     70 H33        -9.0923    2.1597   -4.1962 H         1 <0>         0.0587
     71 H34        -7.7699    4.9867   -2.5977 H         1 <0>         0.0465
     72 H35        -9.4831    5.4360   -2.5976 H         1 <0>         0.1227
     73 H36        -8.0826    2.3855   -0.5042 H         1 <0>         0.0967
     74 H37        -7.0824    3.6428   -1.2570 H         1 <0>         0.0609
     75 H38        -2.1590   -0.5051    1.8404 H         1 <0>         0.3860
     76 H39        -3.9255   -3.5290    0.1571 H         1 <0>         0.4282
@<TRIPOS>BOND
     1    1    2 1
     2    1   40 1
     3    1   41 1
     4    1   42 1
     5    2    3 2
     6    2    4 am
     7    4    5 1
     8    4   43 1
     9    5    6 1
    10    5    7 1
    11    5   16 1
    12    7    8 1
    13    7   44 1
    14    7   45 1
    15    8   13 ar
    16    8    9 ar
    17    9   10 ar
    18    9   46 1
    19   10   11 ar
    20   10   15 1
    21   11   12 ar
    22   11   47 1
    23   12   13 ar
    24   12   14 1
    25   13   48 1
    26   16   17 1
    27   16   18 1
    28   16   39 1
    29   18   19 1
    30   18   49 1
    31   18   50 1
    32   19   20 1
    33   19   51 1
    34   19   76 1
    35   20   25 1
    36   20   21 1
    37   20   26 1
    38   21   22 1
    39   21   52 1
    40   21   53 1
    41   22   23 1
    42   22   54 1
    43   22   55 1
    44   23   24 1
    45   23   56 1
    46   23   57 1
    47   24   25 1
    48   24   58 1
    49   24   59 1
    50   25   60 1
    51   25   61 1
    52   26   31 ar
    53   26   27 ar
    54   27   28 ar
    55   27   62 1
    56   28   29 ar
    57   28   63 1
    58   29   30 ar
    59   29   64 1
    60   30   31 ar
    61   30   32 1
    62   31   65 1
    63   32   38 1
    64   32   33 1
    65   32   66 1
    66   33   34 1
    67   33   67 1
    68   33   68 1
    69   34   35 1
    70   34   69 1
    71   34   70 1
    72   35   36 1
    73   36   37 1
    74   36   71 1
    75   36   72 1
    76   37   38 1
    77   38   73 1
    78   38   74 1
    79   39   75 1
@<TRIPOS>MOLECULE
CHEMBL1209286__1
   76    79     0     0     0
SMALL
USER_CHARGES

@<TRIPOS>ATOM
      1 C1         -0.6772    2.5667   -0.4738 C.3       1 <0>        -0.1822
      2 C2         -0.3725    1.1055   -0.6815 C.2       1 <0>         0.5120
      3 O1          0.0123    0.4282    0.2482 O.2       1 <0>        -0.5322
      4 N1         -0.5275    0.5513   -1.9002 N.am      1 <0>        -0.7322
      5 C3         -0.2313   -0.8692   -2.1020 C.3       1 <0>         0.1326
      6 H1         -0.4144   -1.1341   -3.1434 H         1 <0>         0.1048
      7 C4          1.2348   -1.1384   -1.7574 C.3       1 <0>        -0.0989
      8 C5          2.1223   -0.4041   -2.7292 C.ar      1 <0>        -0.0283
      9 C6          2.5195   -1.0187   -3.9016 C.ar      1 <0>        -0.1648
     10 C7          3.3353   -0.3451   -4.7951 C.ar      1 <0>         0.1397
     11 C8          3.7525    0.9444   -4.5138 C.ar      1 <0>        -0.1923
     12 C9          3.3536    1.5591   -3.3395 C.ar      1 <0>         0.1390
     13 C10         2.5336    0.8855   -2.4499 C.ar      1 <0>        -0.1580
     14 F1          3.7601    2.8177   -3.0637 F         1 <0>        -0.1257
     15 F2          3.7242   -0.9464   -5.9406 F         1 <0>        -0.1256
     16 C11        -1.1312   -1.7116   -1.1957 C.3       1 <0>         0.0681
     17 H2         -0.9482   -1.4466   -0.1543 H         1 <0>         0.1455
     18 C12        -2.5974   -1.4424   -1.5403 C.3       1 <0>        -0.0555
     19 N2         -3.4625   -2.1581   -0.5930 N.4       1 <0>        -0.4992
     20 C13        -4.8660   -2.0019   -0.9973 C.3       1 <0>         0.1158
     21 C14        -5.2278   -0.5154   -1.0199 C.3       1 <0>        -0.1363
     22 C15        -5.0300    0.0789    0.3760 C.3       1 <0>        -0.1351
     23 C16        -5.9322   -0.6505    1.3734 C.3       1 <0>        -0.1325
     24 C17        -5.5705   -2.1369    1.3960 C.3       1 <0>        -0.1363
     25 C18        -5.7683   -2.7312    0.0001 C.3       1 <0>        -0.1315
     26 C19        -5.0609   -2.5872   -2.3722 C.ar      1 <0>        -0.1195
     27 C20        -4.2290   -3.5976   -2.8176 C.ar      1 <0>        -0.1383
     28 C21        -4.4077   -4.1345   -4.0786 C.ar      1 <0>        -0.0944
     29 C22        -5.4187   -3.6614   -4.8945 C.ar      1 <0>        -0.0937
     30 C23        -6.2510   -2.6519   -4.4488 C.ar      1 <0>        -0.0519
     31 C24        -6.0749   -2.1178   -3.1858 C.ar      1 <0>        -0.0855
     32 C25        -7.3527   -2.1359   -5.3383 C.3       1 <0>        -0.0948
     33 C26        -6.7547   -1.5817   -6.6115 C.3       1 <0>        -0.1546
     34 C27        -7.6102   -0.4610   -7.2265 C.3       1 <0>         0.0561
     35 O2         -9.0115   -0.7601   -7.1805 O.3       1 <0>        -0.3860
     36 C28        -9.3594   -2.0916   -7.4842 C.3       1 <0>         0.2220
     37 O3         -9.4707   -2.8090   -6.2478 O.3       1 <0>        -0.3859
     38 C29        -8.3192   -3.2910   -5.6842 C.3       1 <0>         0.0812
     39 O4         -0.8423   -3.0971   -1.3925 O.3       1 <0>        -0.5421
     40 H3          0.2226    3.1548   -0.6548 H         1 <0>         0.1026
     41 H4         -1.4594    2.8768   -1.1667 H         1 <0>         0.0834
     42 H5         -1.0151    2.7255    0.5502 H         1 <0>         0.0999
     43 H6         -0.8353    1.0930   -2.6437 H         1 <0>         0.4116
     44 H7          1.4397   -0.7913   -0.7446 H         1 <0>         0.1085
     45 H8          1.4327   -2.2083   -1.8218 H         1 <0>         0.1015
     46 H9          2.1939   -2.0248   -4.1209 H         1 <0>         0.1428
     47 H10         4.3891    1.4704   -5.2099 H         1 <0>         0.1524
     48 H11         2.2186    1.3665   -1.5357 H         1 <0>         0.1360
     49 H12        -2.7952   -0.3724   -1.4759 H         1 <0>         0.1414
     50 H13        -2.8023   -1.7894   -2.5530 H         1 <0>         0.1406
     51 H14        -3.2203   -3.1376   -0.5904 H         1 <0>         0.4276
     52 H15        -4.5850    0.0042   -1.7304 H         1 <0>         0.0888
     53 H16        -6.2693   -0.3994   -1.3199 H         1 <0>         0.1142
     54 H17        -3.9885   -0.0371    0.6760 H         1 <0>         0.0566
     55 H18        -5.2877    1.1379    0.3600 H         1 <0>         0.0948
     56 H19        -5.7913   -0.2271    2.3679 H         1 <0>         0.0828
     57 H20        -6.9737   -0.5345    1.0734 H         1 <0>         0.0811
     58 H21        -4.5290   -2.2529    1.6960 H         1 <0>         0.0577
     59 H22        -6.2133   -2.6566    2.1066 H         1 <0>         0.0961
     60 H23        -6.8098   -2.6153   -0.2999 H         1 <0>         0.1140
     61 H24        -5.5106   -3.7902    0.0162 H         1 <0>         0.0908
     62 H25        -3.4392   -3.9672   -2.1804 H         1 <0>         0.1182
     63 H26        -3.7574   -4.9233   -4.4268 H         1 <0>         0.1373
     64 H27        -5.5579   -4.0804   -5.8801 H         1 <0>         0.1331
     65 H28        -6.7276   -1.3316   -2.8361 H         1 <0>         0.1353
     66 H29        -7.8990   -1.3478   -4.8201 H         1 <0>         0.0990
     67 H30        -5.7624   -1.1875   -6.3923 H         1 <0>         0.0823
     68 H31        -6.6585   -2.3898   -7.3365 H         1 <0>         0.0699
     69 H32        -7.4279    0.4638   -6.6792 H         1 <0>         0.0924
     70 H33        -7.3129   -0.3192   -8.2656 H         1 <0>         0.0627
     71 H34       -10.3137   -2.1129   -8.0104 H         1 <0>         0.1359
     72 H35        -8.5851   -2.5431   -8.1044 H         1 <0>         0.0511
     73 H36        -7.8323   -3.9680   -6.3862 H         1 <0>         0.0435
     74 H37        -8.5665   -3.8367   -4.7737 H         1 <0>         0.0968
     75 H38        -0.9833   -3.4034   -2.2989 H         1 <0>         0.3860
     76 H39        -3.3347   -1.7776    0.3327 H         1 <0>         0.4280
@<TRIPOS>BOND
     1    1    2 1
     2    1   40 1
     3    1   41 1
     4    1   42 1
     5    2    3 2
     6    2    4 am
     7    4    5 1
     8    4   43 1
     9    5    6 1
    10    5    7 1
    11    5   16 1
    12    7    8 1
    13    7   44 1
    14    7   45 1
    15    8   13 ar
    16    8    9 ar
    17    9   10 ar
    18    9   46 1
    19   10   11 ar
    20   10   15 1
    21   11   12 ar
    22   11   47 1
    23   12   13 ar
    24   12   14 1
    25   13   48 1
    26   16   17 1
    27   16   18 1
    28   16   39 1
    29   18   19 1
    30   18   49 1
    31   18   50 1
    32   19   20 1
    33   19   51 1
    34   19   76 1
    35   20   25 1
    36   20   21 1
    37   20   26 1
    38   21   22 1
    39   21   52 1
    40   21   53 1
    41   22   23 1
    42   22   54 1
    43   22   55 1
    44   23   24 1
    45   23   56 1
    46   23   57 1
    47   24   25 1
    48   24   58 1
    49   24   59 1
    50   25   60 1
    51   25   61 1
    52   26   31 ar
    53   26   27 ar
    54   27   28 ar
    55   27   62 1
    56   28   29 ar
    57   28   63 1
    58   29   30 ar
    59   29   64 1
    60   30   31 ar
    61   30   32 1
    62   31   65 1
    63   32   38 1
    64   32   33 1
    65   32   66 1
    66   33   34 1
    67   33   67 1
    68   33   68 1
    69   34   35 1
    70   34   69 1
    71   34   70 1
    72   35   36 1
    73   36   37 1
    74   36   71 1
    75   36   72 1
    76   37   38 1
    77   38   73 1
    78   38   74 1
    79   39   75 1
@<TRIPOS>MOLECULE
CHEMBL220826
   57    61     0     0     0
SMALL
USER_CHARGES

@<TRIPOS>ATOM
      1 C1         -0.0167    1.3781    0.0096 C.ar      1 <0>        -0.1053
      2 C2          1.1709    2.0855    0.0021 C.ar      1 <0>        -0.1196
      3 C3          2.3773    1.4107   -0.0130 C.ar      1 <0>        -0.0937
      4 C4          2.3960    0.0285   -0.0201 C.ar      1 <0>        -0.1009
      5 C5          1.2084   -0.6789   -0.0117 C.ar      1 <0>        -0.0980
      6 C6          0.0021   -0.0041    0.0020 C.ar      1 <0>        -0.1238
      7 C7          3.7112   -0.7071   -0.0376 C.3       1 <0>         0.1013
      8 O1          4.1410   -0.9464    1.3041 O.3       1 <0>        -0.3056
      9 C8          5.3184   -1.6049    1.4665 C.ar      1 <0>         0.1484
     10 C9          6.0467   -2.0066    0.3546 C.ar      1 <0>        -0.2046
     11 C10         7.2418   -2.6750    0.5161 C.ar      1 <0>        -0.0536
     12 C11         7.7189   -2.9473    1.7976 C.ar      1 <0>        -0.0676
     13 C12         6.9856   -2.5427    2.9118 C.ar      1 <0>        -0.0498
     14 C13         5.7936   -1.8695    2.7436 C.ar      1 <0>        -0.1549
     15 C14         5.0033   -1.4258    3.9477 C.3       1 <0>         0.1740
     16 N1          3.9155   -2.3755    4.1948 N.pl3     1 <0>        -0.7096
     17 C15         3.0396   -2.1728    5.2682 C.ar      1 <0>         0.1680
     18 C16         3.1886   -1.0721    6.1016 C.ar      1 <0>        -0.0767
     19 C17         2.2956   -0.9129    7.1526 C.ar      1 <0>        -0.1027
     20 C18         1.2943   -1.8445    7.3375 C.ar      1 <0>         0.0689
     21 N2          1.1741   -2.8827    6.5305 N.ar      1 <0>        -0.4615
     22 C19         1.9985   -3.0716    5.5137 C.ar      1 <0>         0.3842
     23 N3          1.8310   -4.1782    4.6846 N.pl3     1 <0>        -0.8323
     24 C20         9.0038   -3.6664    1.9749 C.ar      1 <0>        -0.0311
     25 C21         9.4746   -3.9419    3.2634 C.ar      1 <0>        -0.1389
     26 C22        10.6546   -4.6020    3.4407 C.ar      1 <0>        -0.0647
     27 C23        11.4004   -5.0075    2.3302 C.ar      1 <0>        -0.1043
     28 C24        12.6719   -5.7154    2.1657 C.2       1 <0>        -0.2058
     29 C25        12.8924   -5.8259    0.8457 C.2       1 <0>         0.0584
     30 N4         11.8659   -5.2465    0.1509 N.pl3     1 <0>        -0.5958
     31 H1         11.8023   -5.2021   -0.8160 H         1 <0>         0.4177
     32 C26        10.9358   -4.7359    1.0296 C.ar      1 <0>         0.0966
     33 C27         9.7300   -4.0675    0.8607 C.ar      1 <0>        -0.1177
     34 H2         -0.9591    1.9053    0.0259 H         1 <0>         0.1271
     35 H3          1.1563    3.1654    0.0076 H         1 <0>         0.1287
     36 H4          3.3051    1.9634   -0.0196 H         1 <0>         0.1256
     37 H5          1.2231   -1.7588   -0.0176 H         1 <0>         0.1204
     38 H6         -0.9258   -0.5567    0.0082 H         1 <0>         0.1253
     39 H7          3.5884   -1.6586   -0.5549 H         1 <0>         0.0737
     40 H8          4.4573   -0.1052   -0.5563 H         1 <0>         0.0761
     41 H9          5.6764   -1.7957   -0.6377 H         1 <0>         0.1351
     42 H10         7.8076   -2.9875   -0.3491 H         1 <0>         0.1328
     43 H11         7.3524   -2.7525    3.9057 H         1 <0>         0.1378
     44 H12         5.6579   -1.3886    4.8184 H         1 <0>         0.0839
     45 H13         4.5864   -0.4356    3.7639 H         1 <0>         0.0875
     46 H14         3.8021   -3.1447    3.6149 H         1 <0>         0.4055
     47 H15         3.9808   -0.3570    5.9363 H         1 <0>         0.1690
     48 H16         2.3839   -0.0680    7.8196 H         1 <0>         0.1793
     49 H17         0.5987   -1.7227    8.1547 H         1 <0>         0.2029
     50 H18         2.4359   -4.3225    3.9401 H         1 <0>         0.4299
     51 H19         1.1095   -4.8046    4.8517 H         1 <0>         0.4221
     52 H20         8.9001   -3.6295    4.1229 H         1 <0>         0.1226
     53 H21        11.0127   -4.8108    4.4379 H         1 <0>         0.1262
     54 H22        13.3113   -6.0794    2.9563 H         1 <0>         0.1498
     55 H23        13.7527   -6.3017    0.3986 H         1 <0>         0.1744
     56 H24         9.3609   -3.8568   -0.1322 H         1 <0>         0.1223
     57 H25         0.4606   -3.5214    6.6853 H         1 <0>         0.4431
@<TRIPOS>BOND
     1    1    6 ar
     2    1    2 ar
     3    1   34 1
     4    2    3 ar
     5    2   35 1
     6    3    4 ar
     7    3   36 1
     8    4    5 ar
     9    4    7 1
    10    5    6 ar
    11    5   37 1
    12    6   38 1
    13    7    8 1
    14    7   39 1
    15    7   40 1
    16    8    9 1
    17    9   14 ar
    18    9   10 ar
    19   10   11 ar
    20   10   41 1
    21   11   12 ar
    22   11   42 1
    23   12   13 ar
    24   12   24 1
    25   13   14 ar
    26   13   43 1
    27   14   15 1
    28   15   16 1
    29   15   44 1
    30   15   45 1
    31   16   17 1
    32   16   46 1
    33   17   22 ar
    34   17   18 ar
    35   18   19 ar
    36   18   47 1
    37   19   20 ar
    38   19   48 1
    39   20   21 ar
    40   20   49 1
    41   21   22 ar
    42   21   57 1
    43   22   23 1
    44   23   50 1
    45   23   51 1
    46   24   33 ar
    47   24   25 ar
    48   25   26 ar
    49   25   52 1
    50   26   27 ar
    51   26   53 1
    52   27   32 ar
    53   27   28 1
    54   28   29 2
    55   28   54 1
    56   29   30 1
    57   29   55 1
    58   30   31 1
    59   30   32 1
    60   32   33 ar
    61   33   56 1
@<TRIPOS>MOLECULE
CHEMBL590830
   56    59     0     0     0
SMALL
USER_CHARGES

@<TRIPOS>ATOM
      1 C1         -0.2339    5.7481    4.5574 C.3       1 <0>        -0.1018
      2 C2          0.9124    5.5743    5.5201 C.2       1 <0>        -0.0618
      3 C3          1.7655    6.5814    5.9977 C.2       1 <0>        -0.2263
      4 C4          2.6477    5.9917    6.8344 C.2       1 <0>         0.0151
      5 O1          2.3776    4.6811    6.8916 O.3       1 <0>        -0.1671
      6 C5          1.3188    4.4072    6.1015 C.2       1 <0>        -0.1109
      7 C6          0.7126    3.0875    5.8999 C.2       1 <0>         0.6143
      8 O2         -0.2430    2.9639    5.1565 O.2       1 <0>        -0.4940
      9 N1          1.2137    2.0112    6.5379 N.am      1 <0>        -0.6698
     10 C7          0.5785    0.7710    6.4215 C.ar      1 <0>         0.1657
     11 C8         -0.0252    0.4077    5.2243 C.ar      1 <0>        -0.0986
     12 C9         -0.6517   -0.8178    5.1127 C.ar      1 <0>        -0.0876
     13 C10        -0.6786   -1.6831    6.1912 C.ar      1 <0>        -0.1194
     14 C11        -0.0792   -1.3244    7.3844 C.ar      1 <0>        -0.0964
     15 C12         0.5546   -0.1026    7.5008 C.ar      1 <0>        -0.1174
     16 C13        -0.1114   -2.2703    8.5572 C.3       1 <0>         0.1819
     17 C14         1.2951   -2.6396    8.9775 C.2       1 <0>         0.5396
     18 O3          2.1555   -1.8832    9.3749 O.2       1 <0>        -0.3963
     19 N2          1.4032   -3.9728    8.8242 N.am      1 <0>        -0.5549
     20 C15         0.2329   -4.5164    8.3533 C.cat     1 <0>         0.7288
     21 N3         -0.7253   -3.5504    8.1686 N.pl3     1 <0>        -0.6597
     22 N4          0.0553   -5.7835    8.1129 N.pl3     1 <0>        -0.7346
     23 C16         2.6128   -4.7442    9.1211 C.3       1 <0>         0.0557
     24 C17        -0.8747   -1.6446    9.7262 C.3       1 <0>        -0.0816
     25 C18        -0.9990   -2.6655   10.8590 C.3       1 <0>        -0.1208
     26 C19        -1.7622   -2.0397   12.0281 C.3       1 <0>        -0.1189
     27 C20        -3.1585   -1.6235   11.5611 C.3       1 <0>        -0.1236
     28 C21        -3.0342   -0.6026   10.4284 C.3       1 <0>        -0.1216
     29 C22        -2.2709   -1.2283    9.2593 C.3       1 <0>        -0.1112
     30 H1         -1.1465    5.9613    5.1139 H         1 <0>         0.0794
     31 H2         -0.0185    6.5759    3.8818 H         1 <0>         0.0739
     32 H3         -0.3656    4.8329    3.9803 H         1 <0>         0.0864
     33 H4          1.7245    7.6304    5.7441 H         1 <0>         0.1623
     34 H5          3.4403    6.4943    7.3687 H         1 <0>         0.2165
     35 H6          2.0150    2.0970    7.0778 H         1 <0>         0.4202
     36 H7         -0.0048    1.0832    4.3818 H         1 <0>         0.1507
     37 H8         -1.1215   -1.1007    4.1823 H         1 <0>         0.1392
     38 H9         -1.1693   -2.6410    6.1014 H         1 <0>         0.1209
     39 H10         1.0271    0.1748    8.4314 H         1 <0>         0.1390
     40 H11         0.7779   -6.4122    8.2664 H         1 <0>         0.4487
     41 H12         2.5882   -5.0729   10.1601 H         1 <0>         0.1026
     42 H13         2.6590   -5.6140    8.4659 H         1 <0>         0.0995
     43 H14         3.4911   -4.1196    8.9583 H         1 <0>         0.1196
     44 H15        -0.3351   -0.7679   10.0848 H         1 <0>         0.1135
     45 H16        -1.5385   -3.5421   10.5005 H         1 <0>         0.0647
     46 H17        -0.0042   -2.9620   11.1917 H         1 <0>         0.0594
     47 H18        -1.8508   -2.7671   12.8351 H         1 <0>         0.0716
     48 H19        -1.2227   -1.1631   12.3866 H         1 <0>         0.0706
     49 H20        -3.6980   -2.5001   11.2026 H         1 <0>         0.0629
     50 H21        -3.7023   -1.1777   12.3940 H         1 <0>         0.0716
     51 H22        -4.0290   -0.3061   10.0957 H         1 <0>         0.0739
     52 H23        -2.4947    0.2740   10.7869 H         1 <0>         0.0693
     53 H24        -2.1824   -0.5010    8.4523 H         1 <0>         0.0799
     54 H25        -2.8105   -2.1050    8.9008 H         1 <0>         0.0626
     55 H26        -1.6299   -3.6853    7.8457 H         1 <0>         0.4628
     56 H27        -0.7995   -6.0989    7.7802 H         1 <0>         0.4517
@<TRIPOS>BOND
     1    1    2 1
     2    1   30 1
     3    1   31 1
     4    1   32 1
     5    2    6 2
     6    2    3 1
     7    3    4 2
     8    3   33 1
     9    4    5 1
    10    4   34 1
    11    5    6 1
    12    6    7 1
    13    7    8 2
    14    7    9 am
    15    9   10 1
    16    9   35 1
    17   10   15 ar
    18   10   11 ar
    19   11   12 ar
    20   11   36 1
    21   12   13 ar
    22   12   37 1
    23   13   14 ar
    24   13   38 1
    25   14   15 ar
    26   14   16 1
    27   15   39 1
    28   16   21 1
    29   16   17 1
    30   16   24 1
    31   17   18 2
    32   17   19 am
    33   19   20 1
    34   19   23 1
    35   20   21 1
    36   20   22 2
    37   21   55 1
    38   22   40 1
    39   22   56 1
    40   23   41 1
    41   23   42 1
    42   23   43 1
    43   24   29 1
    44   24   25 1
    45   24   44 1
    46   25   26 1
    47   25   45 1
    48   25   46 1
    49   26   27 1
    50   26   47 1
    51   26   48 1
    52   27   28 1
    53   27   49 1
    54   27   50 1
    55   28   29 1
    56   28   51 1
    57   28   52 1
    58   29   53 1
    59   29   54 1
@<TRIPOS>MOLECULE
CHEMBL590830__1
   56    59     0     0     0
SMALL
USER_CHARGES

@<TRIPOS>ATOM
      1 C1         -0.2326    5.7482    4.5574 C.3       1 <0>        -0.1020
      2 C2          0.9138    5.5740    5.5200 C.2       1 <0>        -0.0612
      3 C3          1.7671    6.5810    5.9975 C.2       1 <0>        -0.2264
      4 C4          2.6493    5.9910    6.8341 C.2       1 <0>         0.0156
      5 O1          2.3788    4.6805    6.8913 O.3       1 <0>        -0.1671
      6 C5          1.3199    4.4069    6.1013 C.2       1 <0>        -0.1114
      7 C6          0.7134    3.0873    5.8998 C.2       1 <0>         0.6146
      8 O2         -0.2423    2.9640    5.1564 O.2       1 <0>        -0.4938
      9 N1          1.2144    2.0109    6.5377 N.am      1 <0>        -0.6699
     10 C7          0.5788    0.7709    6.4214 C.ar      1 <0>         0.1675
     11 C8         -0.0251    0.4077    5.2243 C.ar      1 <0>        -0.0972
     12 C9         -0.6519   -0.8176    5.1128 C.ar      1 <0>        -0.0854
     13 C10        -0.6789   -1.6830    6.1913 C.ar      1 <0>        -0.1213
     14 C11        -0.0791   -1.3244    7.3844 C.ar      1 <0>        -0.0975
     15 C12         0.5549   -0.1028    7.5007 C.ar      1 <0>        -0.1158
     16 C13        -0.1114   -2.2703    8.5572 C.3       1 <0>         0.1705
     17 C14         1.2960   -2.6511    8.9723 C.2       1 <0>         0.5406
     18 O3          2.1727   -1.9136    9.3695 O.2       1 <0>        -0.3903
     19 N2          1.3621   -3.9887    8.8044 N.am      1 <0>        -0.5547
     20 C15         0.1676   -4.4777    8.3368 C.cat     1 <0>         0.7292
     21 N3         -0.7248   -3.5510    8.1709 N.pl3     1 <0>        -0.6201
     22 N4         -0.0586   -5.8074    8.0722 N.pl3     1 <0>        -0.7791
     23 C16         2.5456   -4.8061    9.0829 C.3       1 <0>         0.0583
     24 C17        -0.8692   -1.6440    9.7295 C.3       1 <0>        -0.0816
     25 C18        -0.9927   -2.6661   10.8613 C.3       1 <0>        -0.1230
     26 C19        -1.7506   -2.0398   12.0336 C.3       1 <0>        -0.1184
     27 C20        -3.1472   -1.6192   11.5716 C.3       1 <0>        -0.1242
     28 C21        -3.0237   -0.5971   10.4398 C.3       1 <0>        -0.1214
     29 C22        -2.2658   -1.2234    9.2675 C.3       1 <0>        -0.1125
     30 H1         -1.1452    5.9616    5.1140 H         1 <0>         0.0795
     31 H2         -0.0172    6.5759    3.8818 H         1 <0>         0.0740
     32 H3         -0.3647    4.8330    3.9803 H         1 <0>         0.0864
     33 H4          1.7263    7.6300    5.7440 H         1 <0>         0.1624
     34 H5          3.4421    6.4935    7.3683 H         1 <0>         0.2166
     35 H6          2.0158    2.0965    7.0775 H         1 <0>         0.4206
     36 H7         -0.0047    1.0831    4.3818 H         1 <0>         0.1517
     37 H8         -1.1220   -1.1004    4.1825 H         1 <0>         0.1405
     38 H9         -1.1698   -2.6408    6.1015 H         1 <0>         0.1200
     39 H10         1.0277    0.1745    8.4313 H         1 <0>         0.1398
     40 H11         0.6472   -6.4572    8.2153 H         1 <0>         0.4441
     41 H12        -0.9240   -6.0959    7.7425 H         1 <0>         0.4461
     42 H13         2.5170   -5.1460   10.1182 H         1 <0>         0.1018
     43 H14         2.5558   -5.6692    8.4173 H         1 <0>         0.1004
     44 H15         3.4444   -4.2113    8.9205 H         1 <0>         0.1180
     45 H16        -0.3262   -0.7694   10.0874 H         1 <0>         0.1173
     46 H17        -1.5358   -3.5408   10.5033 H         1 <0>         0.0641
     47 H18         0.0023   -2.9658   11.1904 H         1 <0>         0.0616
     48 H19        -1.8385   -2.7680   12.8399 H         1 <0>         0.0727
     49 H20        -1.2075   -1.1651   12.3916 H         1 <0>         0.0715
     50 H21        -3.6902   -2.4938   11.2137 H         1 <0>         0.0632
     51 H22        -3.6871   -1.1730   12.4068 H         1 <0>         0.0726
     52 H23        -4.0187   -0.2974   10.1107 H         1 <0>         0.0748
     53 H24        -2.4806    0.2776   10.7978 H         1 <0>         0.0701
     54 H25        -2.1779   -0.4952    8.4612 H         1 <0>         0.0813
     55 H26        -2.8089   -2.0980    8.9096 H         1 <0>         0.0624
     56 H27        -1.6316   -3.6789    7.8510 H         1 <0>         0.4646
@<TRIPOS>BOND
     1    1    2 1
     2    1   30 1
     3    1   31 1
     4    1   32 1
     5    2    6 2
     6    2    3 1
     7    3    4 2
     8    3   33 1
     9    4    5 1
    10    4   34 1
    11    5    6 1
    12    6    7 1
    13    7    8 2
    14    7    9 am
    15    9   10 1
    16    9   35 1
    17   10   15 ar
    18   10   11 ar
    19   11   12 ar
    20   11   36 1
    21   12   13 ar
    22   12   37 1
    23   13   14 ar
    24   13   38 1
    25   14   15 ar
    26   14   16 1
    27   15   39 1
    28   16   21 1
    29   16   17 1
    30   16   24 1
    31   17   18 2
    32   17   19 am
    33   19   20 1
    34   19   23 1
    35   20   21 2
    36   20   22 1
    37   21   56 1
    38   22   40 1
    39   22   41 1
    40   23   42 1
    41   23   43 1
    42   23   44 1
    43   24   29 1
    44   24   25 1
    45   24   45 1
    46   25   26 1
    47   25   46 1
    48   25   47 1
    49   26   27 1
    50   26   48 1
    51   26   49 1
    52   27   28 1
    53   27   50 1
    54   27   51 1
    55   28   29 1
    56   28   52 1
    57   28   53 1
    58   29   54 1
    59   29   55 1
@<TRIPOS>MOLECULE
CHEMBL590830__2
   56    59     0     0     0
SMALL
USER_CHARGES

@<TRIPOS>ATOM
      1 C1         -1.7687   -5.1386    2.0575 C.3       1 <0>        -0.0970
      2 C2         -1.0633   -4.0745    1.2567 C.2       1 <0>        -0.0650
      3 C3         -0.8423   -4.0776   -0.1294 C.2       1 <0>        -0.2279
      4 C4         -0.1775   -2.9398   -0.4287 C.2       1 <0>         0.0205
      5 O1          0.0177   -2.2452    0.6997 O.3       1 <0>        -0.1650
      6 C5         -0.5205   -2.9176    1.7382 C.2       1 <0>        -0.1120
      7 C6         -0.5199   -2.4837    3.1387 C.2       1 <0>         0.6180
      8 O2         -1.0371   -3.1807    3.9919 O.2       1 <0>        -0.5137
      9 N1          0.0535   -1.3131    3.4813 N.am      1 <0>        -0.6658
     10 C7         -0.0299   -0.8530    4.7991 C.ar      1 <0>         0.1527
     11 C8         -0.1468    0.5073    5.0554 C.ar      1 <0>        -0.1143
     12 C9         -0.2288    0.9584    6.3579 C.ar      1 <0>        -0.0869
     13 C10        -0.1948    0.0575    7.4068 C.ar      1 <0>        -0.0947
     14 C11        -0.0782   -1.2970    7.1552 C.ar      1 <0>        -0.1014
     15 C12        -0.0018   -1.7553    5.8544 C.ar      1 <0>        -0.1076
     16 C13        -0.0410   -2.2750    8.3012 C.3       1 <0>         0.1820
     17 C14        -1.4281   -2.8111    8.5840 C.2       1 <0>         0.5406
     18 O3         -2.3992   -2.1682    8.9214 O.2       1 <0>        -0.3949
     19 N2         -1.3719   -4.1418    8.3871 N.am      1 <0>        -0.5536
     20 C15        -0.1117   -4.5365    8.0091 C.cat     1 <0>         0.7287
     21 N3          0.7441   -3.4653    7.9361 N.pl3     1 <0>        -0.6600
     22 N4          0.2274   -5.7672    7.7536 N.pl3     1 <0>        -0.7353
     23 C16        -2.5082   -5.0513    8.5543 C.3       1 <0>         0.0561
     24 C17         0.5434   -1.6114    9.5498 C.3       1 <0>        -0.0847
     25 C18         1.9671   -1.1349    9.2551 C.3       1 <0>        -0.1148
     26 C19         2.5515   -0.4714   10.5037 C.3       1 <0>        -0.1210
     27 C20         2.5794   -1.4816   11.6525 C.3       1 <0>        -0.1239
     28 C21         1.1557   -1.9581   11.9472 C.3       1 <0>        -0.1186
     29 C22         0.5712   -2.6216   10.6985 C.3       1 <0>        -0.1215
     30 H1         -2.8342   -4.9132    2.1021 H         1 <0>         0.0788
     31 H2         -1.6220   -6.1083    1.5818 H         1 <0>         0.0732
     32 H3         -1.3600   -5.1639    3.0676 H         1 <0>         0.0799
     33 H4         -1.1464   -4.8451   -0.8258 H         1 <0>         0.1628
     34 H5          0.1438   -2.6401   -1.4153 H         1 <0>         0.2181
     35 H6          0.5239   -0.7897    2.8137 H         1 <0>         0.4226
     36 H7         -0.1730    1.2114    4.2368 H         1 <0>         0.1394
     37 H8         -0.3193    2.0159    6.5578 H         1 <0>         0.1440
     38 H9         -0.2592    0.4129    8.4246 H         1 <0>         0.1384
     39 H10         0.0841   -2.8139    5.6583 H         1 <0>         0.1369
     40 H11        -0.4304   -6.4764    7.8253 H         1 <0>         0.4481
     41 H12        -3.0435   -5.1416    7.6091 H         1 <0>         0.1025
     42 H13        -2.1461   -6.0324    8.8619 H         1 <0>         0.0988
     43 H14        -3.1803   -4.6568    9.3163 H         1 <0>         0.1193
     44 H15        -0.0743   -0.7585    9.8309 H         1 <0>         0.1164
     45 H16         2.5849   -1.9878    8.9740 H         1 <0>         0.0623
     46 H17         1.9473   -0.4152    8.4367 H         1 <0>         0.0814
     47 H18         3.5658   -0.1319   10.2938 H         1 <0>         0.0737
     48 H19         1.9338    0.3816   10.7848 H         1 <0>         0.0707
     49 H20         3.1971   -2.3345   11.3714 H         1 <0>         0.0623
     50 H21         2.9957   -1.0088   12.5420 H         1 <0>         0.0717
     51 H22         1.1755   -2.6778   12.7655 H         1 <0>         0.0714
     52 H23         0.5379   -1.1052   12.2283 H         1 <0>         0.0715
     53 H24        -0.4430   -2.9611   10.9085 H         1 <0>         0.0609
     54 H25         1.1890   -3.4745   10.4174 H         1 <0>         0.0637
     55 H26         1.6824   -3.4884    7.6914 H         1 <0>         0.4616
     56 H27         1.1380   -5.9749    7.4915 H         1 <0>         0.4506
@<TRIPOS>BOND
     1    1    2 1
     2    1   30 1
     3    1   31 1
     4    1   32 1
     5    2    6 2
     6    2    3 1
     7    3    4 2
     8    3   33 1
     9    4    5 1
    10    4   34 1
    11    5    6 1
    12    6    7 1
    13    7    8 2
    14    7    9 am
    15    9   10 1
    16    9   35 1
    17   10   15 ar
    18   10   11 ar
    19   11   12 ar
    20   11   36 1
    21   12   13 ar
    22   12   37 1
    23   13   14 ar
    24   13   38 1
    25   14   15 ar
    26   14   16 1
    27   15   39 1
    28   16   21 1
    29   16   17 1
    30   16   24 1
    31   17   18 2
    32   17   19 am
    33   19   20 1
    34   19   23 1
    35   20   21 1
    36   20   22 2
    37   21   55 1
    38   22   40 1
    39   22   56 1
    40   23   41 1
    41   23   42 1
    42   23   43 1
    43   24   29 1
    44   24   25 1
    45   24   44 1
    46   25   26 1
    47   25   45 1
    48   25   46 1
    49   26   27 1
    50   26   47 1
    51   26   48 1
    52   27   28 1
    53   27   49 1
    54   27   50 1
    55   28   29 1
    56   28   51 1
    57   28   52 1
    58   29   53 1
    59   29   54 1
@<TRIPOS>MOLECULE
CHEMBL590830__3
   56    59     0     0     0
SMALL
USER_CHARGES

@<TRIPOS>ATOM
      1 C1         -1.7687   -5.1386    2.0575 C.3       1 <0>        -0.0974
      2 C2         -1.0633   -4.0745    1.2567 C.2       1 <0>        -0.0641
      3 C3         -0.8423   -4.0776   -0.1294 C.2       1 <0>        -0.2278
      4 C4         -0.1775   -2.9398   -0.4287 C.2       1 <0>         0.0209
      5 O1          0.0177   -2.2452    0.6997 O.3       1 <0>        -0.1651
      6 C5         -0.5205   -2.9176    1.7382 C.2       1 <0>        -0.1127
      7 C6         -0.5199   -2.4837    3.1387 C.2       1 <0>         0.6180
      8 O2         -1.0371   -3.1807    3.9919 O.2       1 <0>        -0.5129
      9 N1          0.0535   -1.3131    3.4813 N.am      1 <0>        -0.6662
     10 C7         -0.0299   -0.8530    4.7991 C.ar      1 <0>         0.1551
     11 C8         -0.1468    0.5073    5.0554 C.ar      1 <0>        -0.1126
     12 C9         -0.2288    0.9584    6.3579 C.ar      1 <0>        -0.0857
     13 C10        -0.1948    0.0575    7.4068 C.ar      1 <0>        -0.0931
     14 C11        -0.0782   -1.2970    7.1552 C.ar      1 <0>        -0.1031
     15 C12        -0.0018   -1.7553    5.8544 C.ar      1 <0>        -0.1097
     16 C13        -0.0410   -2.2750    8.3012 C.3       1 <0>         0.1706
     17 C14        -1.4272   -2.8224    8.5784 C.2       1 <0>         0.5417
     18 O3         -2.4123   -2.2001    8.9138 O.2       1 <0>        -0.3890
     19 N2         -1.3278   -4.1524    8.3707 N.am      1 <0>        -0.5534
     20 C15        -0.0500   -4.4904    7.9995 C.cat     1 <0>         0.7292
     21 N3          0.7435   -3.4660    7.9384 N.pl3     1 <0>        -0.6208
     22 N4          0.3463   -5.7770    7.7228 N.pl3     1 <0>        -0.7797
     23 C16        -2.4315   -5.1041    8.5207 C.3       1 <0>         0.0587
     24 C17         0.5377   -1.6116    9.5525 C.3       1 <0>        -0.0848
     25 C18         1.9610   -1.1307    9.2630 C.3       1 <0>        -0.1162
     26 C19         2.5397   -0.4674   10.5143 C.3       1 <0>        -0.1208
     27 C20         2.5668   -1.4792   11.6617 C.3       1 <0>        -0.1245
     28 C21         1.1435   -1.9600   11.9513 C.3       1 <0>        -0.1182
     29 C22         0.5647   -2.6234   10.6999 C.3       1 <0>        -0.1235
     30 H1         -2.8342   -4.9132    2.1021 H         1 <0>         0.0789
     31 H2         -1.6220   -6.1083    1.5818 H         1 <0>         0.0734
     32 H3         -1.3600   -5.1639    3.0676 H         1 <0>         0.0802
     33 H4         -1.1464   -4.8451   -0.8258 H         1 <0>         0.1630
     34 H5          0.1438   -2.6401   -1.4153 H         1 <0>         0.2182
     35 H6          0.5239   -0.7897    2.8137 H         1 <0>         0.4230
     36 H7         -0.1730    1.2114    4.2368 H         1 <0>         0.1405
     37 H8         -0.3193    2.0159    6.5578 H         1 <0>         0.1453
     38 H9         -0.2592    0.4129    8.4246 H         1 <0>         0.1395
     39 H10         0.0841   -2.8139    5.6583 H         1 <0>         0.1366
     40 H11        -0.2916   -6.5050    7.7850 H         1 <0>         0.4435
     41 H12         1.2640   -5.9570    7.4652 H         1 <0>         0.4449
     42 H13        -2.9561   -5.2047    7.5705 H         1 <0>         0.1016
     43 H14        -2.0362   -6.0742    8.8220 H         1 <0>         0.0997
     44 H15        -3.1231   -4.7415    9.2810 H         1 <0>         0.1177
     45 H16        -0.0833   -0.7608    9.8329 H         1 <0>         0.1203
     46 H17         2.5820   -1.9815    8.9826 H         1 <0>         0.0620
     47 H18         1.9417   -0.4099    8.4456 H         1 <0>         0.0828
     48 H19         3.5537   -0.1248   10.3080 H         1 <0>         0.0747
     49 H20         1.9187    0.3834   10.7947 H         1 <0>         0.0715
     50 H21         3.1877   -2.3300   11.3813 H         1 <0>         0.0625
     51 H22         2.9790   -1.0066   12.5532 H         1 <0>         0.0727
     52 H23         1.1627   -2.6809   12.7687 H         1 <0>         0.0725
     53 H24         0.5225   -1.1092   12.2317 H         1 <0>         0.0723
     54 H25        -0.4492   -2.9660   10.9062 H         1 <0>         0.0630
     55 H26         1.1857   -3.4742   10.4195 H         1 <0>         0.0633
     56 H27         1.6828   -3.4820    7.6969 H         1 <0>         0.4632
@<TRIPOS>BOND
     1    1    2 1
     2    1   30 1
     3    1   31 1
     4    1   32 1
     5    2    6 2
     6    2    3 1
     7    3    4 2
     8    3   33 1
     9    4    5 1
    10    4   34 1
    11    5    6 1
    12    6    7 1
    13    7    8 2
    14    7    9 am
    15    9   10 1
    16    9   35 1
    17   10   15 ar
    18   10   11 ar
    19   11   12 ar
    20   11   36 1
    21   12   13 ar
    22   12   37 1
    23   13   14 ar
    24   13   38 1
    25   14   15 ar
    26   14   16 1
    27   15   39 1
    28   16   21 1
    29   16   17 1
    30   16   24 1
    31   17   18 2
    32   17   19 am
    33   19   20 1
    34   19   23 1
    35   20   21 2
    36   20   22 1
    37   21   56 1
    38   22   40 1
    39   22   41 1
    40   23   42 1
    41   23   43 1
    42   23   44 1
    43   24   29 1
    44   24   25 1
    45   24   45 1
    46   25   26 1
    47   25   46 1
    48   25   47 1
    49   26   27 1
    50   26   48 1
    51   26   49 1
    52   27   28 1
    53   27   50 1
    54   27   51 1
    55   28   29 1
    56   28   52 1
    57   28   53 1
    58   29   54 1
    59   29   55 1
@<TRIPOS>MOLECULE
CHEMBL1209167
   73    76     0     0     0
SMALL
USER_CHARGES

@<TRIPOS>ATOM
      1 C1         -0.5228    2.5626    0.6605 C.3       1 <0>        -0.1840
      2 C2         -0.7025    1.0953    0.3676 C.2       1 <0>         0.5121
      3 O1          0.2399    0.4328   -0.0117 O.2       1 <0>        -0.5322
      4 N1         -1.9105    0.5192    0.5271 N.am      1 <0>        -0.7326
      5 C3         -2.0851   -0.9072    0.2423 C.3       1 <0>         0.1323
      6 H1         -3.1213   -1.1904    0.4275 H         1 <0>         0.1052
      7 C4         -1.7352   -1.1816   -1.2216 C.3       1 <0>        -0.0984
      8 C5         -2.7206   -0.4731   -2.1149 C.ar      1 <0>        -0.0284
      9 C6         -3.8811   -1.1131   -2.5073 C.ar      1 <0>        -0.1646
     10 C7         -4.7870   -0.4633   -3.3285 C.ar      1 <0>         0.1398
     11 C8         -4.5303    0.8279   -3.7561 C.ar      1 <0>        -0.1922
     12 C9         -3.3680    1.4681   -3.3621 C.ar      1 <0>         0.1388
     13 C10        -2.4660    0.8182   -2.5367 C.ar      1 <0>        -0.1581
     14 F1         -3.1162    2.7284   -3.7787 F         1 <0>        -0.1258
     15 F2         -5.9209   -1.0895   -3.7126 F         1 <0>        -0.1256
     16 C11        -1.1631   -1.7249    1.1490 C.3       1 <0>         0.0685
     17 H2         -0.1269   -1.4416    0.9639 H         1 <0>         0.1456
     18 C12        -1.5130   -1.4505    2.6130 C.3       1 <0>        -0.0564
     19 N2         -0.5524   -2.1411    3.4838 N.4       1 <0>        -0.4990
     20 C13        -0.9599   -1.9812    4.8861 C.3       1 <0>         0.1160
     21 C14        -1.0108   -0.4926    5.2358 C.3       1 <0>        -0.1372
     22 C15         0.3735    0.1266    5.0332 C.3       1 <0>        -0.1353
     23 C16         1.3845   -0.5764    5.9414 C.3       1 <0>        -0.1321
     24 C17         1.4354   -2.0650    5.5916 C.3       1 <0>        -0.1364
     25 C18         0.0511   -2.6842    5.7942 C.3       1 <0>        -0.1308
     26 C19        -2.3234   -2.5911    5.0856 C.ar      1 <0>        -0.1190
     27 C20        -2.7494   -3.6165    4.2618 C.ar      1 <0>        -0.1365
     28 C21        -3.9999   -4.1758    4.4448 C.ar      1 <0>        -0.0924
     29 C22        -4.8248   -3.7102    5.4520 C.ar      1 <0>        -0.0947
     30 C23        -4.3987   -2.6858    6.2761 C.ar      1 <0>        -0.0465
     31 C24        -3.1460   -2.1292    6.0957 C.ar      1 <0>        -0.0827
     32 C25        -5.2980   -2.1780    7.3735 C.3       1 <0>        -0.1193
     33 C26        -5.6521   -3.3277    8.3394 C.3       1 <0>        -0.1144
     34 C27        -7.1305   -3.0521    8.7140 C.3       1 <0>        -0.1232
     35 C28        -7.7164   -2.5234    7.3812 C.3       1 <0>        -0.1863
     36 C29        -6.6022   -1.6811    6.7856 C.2       1 <0>         0.3756
     37 O2         -6.7321   -0.7813    5.9907 O.2       1 <0>        -0.4322
     38 O3         -1.3334   -3.1162    0.8713 O.3       1 <0>        -0.5424
     39 H3          0.5133    2.8458    0.4754 H         1 <0>         0.1002
     40 H4         -1.1797    3.1451    0.0146 H         1 <0>         0.0960
     41 H5         -0.7721    2.7581    1.7035 H         1 <0>         0.0910
     42 H6         -2.6642    1.0491    0.8304 H         1 <0>         0.4122
     43 H7         -0.7292   -0.8169   -1.4292 H         1 <0>         0.1084
     44 H8         -1.7791   -2.2541   -1.4108 H         1 <0>         0.1014
     45 H9         -4.0811   -2.1206   -2.1736 H         1 <0>         0.1429
     46 H10        -5.2362    1.3354   -4.3969 H         1 <0>         0.1523
     47 H11        -1.5611    1.3191   -2.2256 H         1 <0>         0.1362
     48 H12        -1.4691   -0.3779    2.8022 H         1 <0>         0.1416
     49 H13        -2.5190   -1.8151    2.8206 H         1 <0>         0.1411
     50 H14        -0.5311   -3.1223    3.2495 H         1 <0>         0.4276
     51 H15        -1.7311    0.0082    4.5888 H         1 <0>         0.0898
     52 H16        -1.3132   -0.3740    6.2763 H         1 <0>         0.1137
     53 H17         0.6759    0.0079    3.9927 H         1 <0>         0.0570
     54 H18         0.3372    1.1871    5.2824 H         1 <0>         0.0948
     55 H19         2.3707   -0.1353    5.7971 H         1 <0>         0.0828
     56 H20         1.0821   -0.4578    6.9819 H         1 <0>         0.0806
     57 H21         1.7378   -2.1836    4.5511 H         1 <0>         0.0580
     58 H22         2.1557   -2.5658    6.2386 H         1 <0>         0.0960
     59 H23        -0.2513   -2.5656    6.8347 H         1 <0>         0.1136
     60 H24         0.0874   -3.7447    5.5450 H         1 <0>         0.0911
     61 H25        -2.1050   -3.9802    3.4751 H         1 <0>         0.1195
     62 H26        -4.3329   -4.9764    3.8009 H         1 <0>         0.1391
     63 H27        -5.8023   -4.1468    5.5945 H         1 <0>         0.1343
     64 H28        -2.8115   -1.3312    6.7421 H         1 <0>         0.1358
     65 H29        -4.8037   -1.3728    7.9172 H         1 <0>         0.1144
     66 H30        -5.5571   -4.2913    7.8389 H         1 <0>         0.0798
     67 H31        -5.0192   -3.2916    9.2261 H         1 <0>         0.0841
     68 H32        -7.6307   -3.9709    9.0199 H         1 <0>         0.0878
     69 H33        -7.1978   -2.2943    9.4946 H         1 <0>         0.0801
     70 H34        -7.9627   -3.3527    6.7181 H         1 <0>         0.1078
     71 H35        -8.5979   -1.9106    7.5694 H         1 <0>         0.0999
     72 H36        -2.2338   -3.4386    1.0147 H         1 <0>         0.3862
     73 H37         0.3659   -1.7440    3.3530 H         1 <0>         0.4280
@<TRIPOS>BOND
     1    1    2 1
     2    1   39 1
     3    1   40 1
     4    1   41 1
     5    2    3 2
     6    2    4 am
     7    4    5 1
     8    4   42 1
     9    5    6 1
    10    5    7 1
    11    5   16 1
    12    7    8 1
    13    7   43 1
    14    7   44 1
    15    8   13 ar
    16    8    9 ar
    17    9   10 ar
    18    9   45 1
    19   10   11 ar
    20   10   15 1
    21   11   12 ar
    22   11   46 1
    23   12   13 ar
    24   12   14 1
    25   13   47 1
    26   16   17 1
    27   16   18 1
    28   16   38 1
    29   18   19 1
    30   18   48 1
    31   18   49 1
    32   19   20 1
    33   19   50 1
    34   19   73 1
    35   20   25 1
    36   20   21 1
    37   20   26 1
    38   21   22 1
    39   21   51 1
    40   21   52 1
    41   22   23 1
    42   22   53 1
    43   22   54 1
    44   23   24 1
    45   23   55 1
    46   23   56 1
    47   24   25 1
    48   24   57 1
    49   24   58 1
    50   25   59 1
    51   25   60 1
    52   26   31 ar
    53   26   27 ar
    54   27   28 ar
    55   27   61 1
    56   28   29 ar
    57   28   62 1
    58   29   30 ar
    59   29   63 1
    60   30   31 ar
    61   30   32 1
    62   31   64 1
    63   32   36 1
    64   32   33 1
    65   32   65 1
    66   33   34 1
    67   33   66 1
    68   33   67 1
    69   34   35 1
    70   34   68 1
    71   34   69 1
    72   35   36 1
    73   35   70 1
    74   35   71 1
    75   36   37 2
    76   38   72 1
@<TRIPOS>MOLECULE
CHEMBL1209167__1
   73    76     0     0     0
SMALL
USER_CHARGES

@<TRIPOS>ATOM
      1 C1          4.7767   -4.1208    6.2952 C.3       1 <0>        -0.1840
      2 C2          4.3453   -3.4452    5.0190 C.2       1 <0>         0.5118
      3 O1          4.1867   -4.0994    4.0102 O.2       1 <0>        -0.5314
      4 N1          4.1356   -2.1140    4.9989 N.am      1 <0>        -0.7328
      5 C3          3.7161   -1.4573    3.7583 C.3       1 <0>         0.1329
      6 H1          3.5974   -0.3883    3.9353 H         1 <0>         0.1053
      7 C4          4.7773   -1.6807    2.6790 C.3       1 <0>        -0.0990
      8 C5          6.0561   -0.9925    3.0818 C.ar      1 <0>        -0.0282
      9 C6          6.2801    0.3201    2.7116 C.ar      1 <0>        -0.1647
     10 C7          7.4549    0.9533    3.0808 C.ar      1 <0>         0.1397
     11 C8          8.4050    0.2712    3.8211 C.ar      1 <0>        -0.1923
     12 C9          8.1794   -1.0432    4.1917 C.ar      1 <0>         0.1389
     13 C10         7.0015   -1.6727    3.8258 C.ar      1 <0>        -0.1582
     14 F1          9.1058   -1.7101    4.9143 F         1 <0>        -0.1258
     15 F2          7.6740    2.2361    2.7181 F         1 <0>        -0.1256
     16 C11         2.3837   -2.0484    3.2936 C.3       1 <0>         0.0679
     17 H2          2.5025   -3.1174    3.1166 H         1 <0>         0.1453
     18 C12         1.3225   -1.8250    4.3729 C.3       1 <0>        -0.0558
     19 N2          0.0760   -2.4958    3.9803 N.4       1 <0>        -0.4993
     20 C13        -0.9782   -2.1785    4.9530 C.3       1 <0>         0.1161
     21 C14        -2.2714   -2.8926    4.5547 C.3       1 <0>        -0.1322
     22 C15        -2.0340   -4.4039    4.5346 C.3       1 <0>        -0.1361
     23 C16        -1.6014   -4.8707    5.9260 C.3       1 <0>        -0.1325
     24 C17        -0.3082   -4.1566    6.3243 C.3       1 <0>        -0.1351
     25 C18        -0.5456   -2.6453    6.3443 C.3       1 <0>        -0.1364
     26 C19        -1.2119   -0.6899    4.9727 C.ar      1 <0>        -0.1190
     27 C20        -0.9315    0.0688    3.8515 C.ar      1 <0>        -0.1365
     28 C21        -1.1459    1.4341    3.8696 C.ar      1 <0>        -0.0924
     29 C22        -1.6412    2.0411    5.0088 C.ar      1 <0>        -0.0947
     30 C23        -1.9225    1.2825    6.1293 C.ar      1 <0>        -0.0466
     31 C24        -1.7120   -0.0839    6.1098 C.ar      1 <0>        -0.0827
     32 C25        -2.4620    1.9441    7.3712 C.3       1 <0>        -0.1195
     33 C26        -1.4712    3.0163    7.8702 C.3       1 <0>        -0.1130
     34 C27        -2.3885    4.1577    8.3779 C.3       1 <0>        -0.1232
     35 C28        -3.5473    4.1327    7.3505 C.3       1 <0>        -0.1862
     36 C29        -3.7594    2.6584    7.0551 C.2       1 <0>         0.3731
     37 O2         -4.7746    2.1498    6.6438 O.2       1 <0>        -0.4283
     38 O3          1.9746   -1.4078    2.0835 O.3       1 <0>        -0.5421
     39 H3          4.8955   -5.1898    6.1182 H         1 <0>         0.1002
     40 H4          5.7260   -3.6997    6.6262 H         1 <0>         0.0960
     41 H5          4.0207   -3.9617    7.0641 H         1 <0>         0.0909
     42 H6          4.2623   -1.5908    5.8058 H         1 <0>         0.4118
     43 H7          4.9601   -2.7491    2.5648 H         1 <0>         0.1083
     44 H8          4.4256   -1.2690    1.7330 H         1 <0>         0.1015
     45 H9          5.5386    0.8521    2.1340 H         1 <0>         0.1429
     46 H10         9.3218    0.7641    4.1092 H         1 <0>         0.1523
     47 H11         6.8234   -2.6969    4.1186 H         1 <0>         0.1362
     48 H12         1.6742   -2.2366    5.3189 H         1 <0>         0.1414
     49 H13         1.1398   -0.7565    4.4871 H         1 <0>         0.1412
     50 H14        -0.2039   -2.1765    3.0649 H         1 <0>         0.4279
     51 H15        -3.0535   -2.6572    5.2764 H         1 <0>         0.1141
     52 H16        -2.5796   -2.5600    3.5634 H         1 <0>         0.0911
     53 H17        -2.9553   -4.9127    4.2509 H         1 <0>         0.0961
     54 H18        -1.2518   -4.6394    3.8129 H         1 <0>         0.0579
     55 H19        -2.3836   -4.6353    6.6477 H         1 <0>         0.0808
     56 H20        -1.4323   -5.9474    5.9117 H         1 <0>         0.0829
     57 H21        -0.0000   -4.4892    7.3155 H         1 <0>         0.0947
     58 H22         0.4740   -4.3921    5.6026 H         1 <0>         0.0569
     59 H23         0.3757   -2.1366    6.6281 H         1 <0>         0.0896
     60 H24        -1.3277   -2.4099    7.0660 H         1 <0>         0.1138
     61 H25        -0.5445   -0.4053    2.9616 H         1 <0>         0.1194
     62 H26        -0.9261    2.0269    2.9939 H         1 <0>         0.1391
     63 H27        -1.8081    3.1080    5.0231 H         1 <0>         0.1343
     64 H28        -1.9354   -0.6772    6.9842 H         1 <0>         0.1358
     65 H29        -2.6273    1.1981    8.1486 H         1 <0>         0.1142
     66 H30        -0.8610    2.6247    8.6841 H         1 <0>         0.0830
     67 H31        -0.8416    3.3662    7.0522 H         1 <0>         0.0790
     68 H32        -2.7556    3.9427    9.3815 H         1 <0>         0.0801
     69 H33        -1.8675    5.1147    8.3513 H         1 <0>         0.0873
     70 H34        -4.4485    4.5679    7.7824 H         1 <0>         0.1000
     71 H35        -3.2632    4.6657    6.4431 H         1 <0>         0.1076
     72 H36         1.8493   -0.4526    2.1671 H         1 <0>         0.3861
     73 H37         0.2236   -3.4937    3.9579 H         1 <0>         0.4281
@<TRIPOS>BOND
     1    1    2 1
     2    1   39 1
     3    1   40 1
     4    1   41 1
     5    2    3 2
     6    2    4 am
     7    4    5 1
     8    4   42 1
     9    5    6 1
    10    5    7 1
    11    5   16 1
    12    7    8 1
    13    7   43 1
    14    7   44 1
    15    8   13 ar
    16    8    9 ar
    17    9   10 ar
    18    9   45 1
    19   10   11 ar
    20   10   15 1
    21   11   12 ar
    22   11   46 1
    23   12   13 ar
    24   12   14 1
    25   13   47 1
    26   16   17 1
    27   16   18 1
    28   16   38 1
    29   18   19 1
    30   18   48 1
    31   18   49 1
    32   19   20 1
    33   19   50 1
    34   19   73 1
    35   20   25 1
    36   20   21 1
    37   20   26 1
    38   21   22 1
    39   21   51 1
    40   21   52 1
    41   22   23 1
    42   22   53 1
    43   22   54 1
    44   23   24 1
    45   23   55 1
    46   23   56 1
    47   24   25 1
    48   24   57 1
    49   24   58 1
    50   25   59 1
    51   25   60 1
    52   26   31 ar
    53   26   27 ar
    54   27   28 ar
    55   27   61 1
    56   28   29 ar
    57   28   62 1
    58   29   30 ar
    59   29   63 1
    60   30   31 ar
    61   30   32 1
    62   31   64 1
    63   32   36 1
    64   32   33 1
    65   32   65 1
    66   33   34 1
    67   33   66 1
    68   33   67 1
    69   34   35 1
    70   34   68 1
    71   34   69 1
    72   35   36 1
    73   35   70 1
    74   35   71 1
    75   36   37 2
    76   38   72 1
@<TRIPOS>MOLECULE
CHEMBL448592
   78    82     0     0     0
SMALL
USER_CHARGES

@<TRIPOS>ATOM
      1 C1         -0.0187    1.5258    0.0104 C.3       1 <0>        -0.1739
      2 C2          0.0021   -0.0041    0.0020 C.3       1 <0>         0.1357
      3 N1          0.7106   -0.4894    1.1889 N.pl3     1 <0>        -0.3952
      4 C3          2.0582   -0.7352    1.2793 C.ar      1 <0>         0.1261
      5 C4          3.1135   -0.6258    0.3818 C.ar      1 <0>        -0.0988
      6 C5          4.4022   -0.9592    0.7834 C.ar      1 <0>        -0.0794
      7 C6          4.6437   -1.4058    2.0904 C.ar      1 <0>        -0.0965
      8 C7          3.6063   -1.5189    2.9891 C.ar      1 <0>         0.2243
      9 C8          2.2973   -1.1833    2.5925 C.ar      1 <0>        -0.1471
     10 C9          1.0503   -1.1895    3.2583 C.2       1 <0>         0.0754
     11 N2          0.1328   -0.7778    2.4312 N.2       1 <0>        -0.2318
     12 N3          3.8518   -1.9648    4.2903 N.am      1 <0>        -0.5870
     13 C10         3.8184   -3.3728    4.7033 C.3       1 <0>         0.1046
     14 C11         4.5582   -3.4224    6.0586 C.3       1 <0>        -0.1317
     15 C12         4.3615   -1.9793    6.5782 C.3       1 <0>        -0.1532
     16 C13         4.1546   -1.1599    5.3234 C.2       1 <0>         0.5225
     17 O1          4.2460    0.0478    5.2596 O.2       1 <0>        -0.5143
     18 C14         5.5229   -0.8428   -0.1721 C.2       1 <0>         0.5679
     19 O2          6.6509   -1.1335    0.1757 O.2       1 <0>        -0.4964
     20 N4          5.2947   -0.4144   -1.4294 N.am      1 <0>        -0.7246
     21 C15         6.4060   -0.2989   -2.3770 C.3       1 <0>         0.1274
     22 H1          7.3048    0.0152   -1.8463 H         1 <0>         0.1113
     23 C16         6.6533   -1.6551   -3.0406 C.3       1 <0>        -0.1018
     24 C17         7.1154   -2.6454   -2.0029 C.ar      1 <0>        -0.0799
     25 C18         8.4640   -2.7853   -1.7332 C.ar      1 <0>        -0.1062
     26 C19         8.8879   -3.6936   -0.7813 C.ar      1 <0>        -0.1107
     27 C20         7.9632   -4.4618   -0.0988 C.ar      1 <0>        -0.1098
     28 C21         6.6146   -4.3212   -0.3678 C.ar      1 <0>        -0.1087
     29 C22         6.1904   -3.4098   -1.3167 C.ar      1 <0>        -0.1062
     30 C23         6.0577    0.7369   -3.4478 C.3       1 <0>         0.0743
     31 H2          5.7950    1.6802   -2.9689 H         1 <0>         0.1345
     32 C24         7.2645    0.9488   -4.3641 C.3       1 <0>        -0.0478
     33 N5          6.9723    2.0279   -5.3170 N.4       1 <0>        -0.5052
     34 C25         8.1310    2.2313   -6.1967 C.3       1 <0>         0.0466
     35 C26         7.8313    3.3384   -7.1743 C.ar      1 <0>        -0.1686
     36 C27         7.2440    3.0458   -8.3912 C.ar      1 <0>        -0.0603
     37 C28         6.9691    4.0612   -9.2878 C.ar      1 <0>        -0.1108
     38 C29         7.2811    5.3695   -8.9675 C.ar      1 <0>        -0.0358
     39 C30         7.8674    5.6621   -7.7506 C.ar      1 <0>        -0.1744
     40 C31         8.1384    4.6469   -6.8520 C.ar      1 <0>        -0.0436
     41 C32         8.2078    7.0880   -7.4016 C.3       1 <0>         0.5060
     42 F1          7.8391    7.9275   -8.4583 F         1 <0>        -0.1689
     43 F2          7.5159    7.4630   -6.2450 F         1 <0>        -0.1727
     44 F3          9.5844    7.1974   -7.1777 F         1 <0>        -0.1701
     45 O3          4.9496    0.2698   -4.2198 O.3       1 <0>        -0.5494
     46 H3          1.0039    1.9031    0.0027 H         1 <0>         0.0589
     47 H4         -0.5459    1.8868   -0.8726 H         1 <0>         0.0802
     48 H5         -0.5289    1.8773    0.9072 H         1 <0>         0.0683
     49 H6         -1.0205   -0.3814    0.0098 H         1 <0>         0.1005
     50 H7          0.5123   -0.3556   -0.8948 H         1 <0>         0.0910
     51 H8          2.9328   -0.2827   -0.6262 H         1 <0>         0.1288
     52 H9          5.6479   -1.6626    2.3936 H         1 <0>         0.1433
     53 H10         0.8863   -1.4835    4.2845 H         1 <0>         0.1925
     54 H11         2.7877   -3.7062    4.8238 H         1 <0>         0.0789
     55 H12         4.3330   -3.9934    3.9698 H         1 <0>         0.0832
     56 H13         4.0946   -4.1453    6.7298 H         1 <0>         0.0978
     57 H14         5.6158   -3.6455    5.9177 H         1 <0>         0.0863
     58 H15         3.4854   -1.9226    7.2242 H         1 <0>         0.1111
     59 H16         5.2510   -1.6405    7.1093 H         1 <0>         0.1078
     60 H17         4.3946   -0.1824   -1.7069 H         1 <0>         0.4054
     61 H18         5.7290   -2.0107   -3.4960 H         1 <0>         0.0822
     62 H19         7.4195   -1.5495   -3.8086 H         1 <0>         0.0800
     63 H20         9.1864   -2.1852   -2.2665 H         1 <0>         0.1122
     64 H21         9.9415   -3.8034   -0.5711 H         1 <0>         0.1199
     65 H22         8.2944   -5.1719    0.6444 H         1 <0>         0.1203
     66 H23         5.8922   -4.9216    0.1652 H         1 <0>         0.1178
     67 H24         5.1365   -3.2973   -1.5242 H         1 <0>         0.1101
     68 H25         8.1333    1.2193   -3.7640 H         1 <0>         0.1500
     69 H26         7.4722    0.0285   -4.9099 H         1 <0>         0.1438
     70 H27         6.1681    1.7775   -5.8725 H         1 <0>         0.4327
     71 H28         8.9998    2.5018   -5.5966 H         1 <0>         0.1436
     72 H29         8.3388    1.3110   -6.7426 H         1 <0>         0.1446
     73 H30         7.0003    2.0239   -8.6414 H         1 <0>         0.1436
     74 H31         6.5110    3.8326  -10.2387 H         1 <0>         0.1511
     75 H32         7.0669    6.1628   -9.6683 H         1 <0>         0.1531
     76 H33         8.5931    4.8760   -5.8995 H         1 <0>         0.1442
     77 H34         5.1126   -0.5675   -4.6751 H         1 <0>         0.3917
     78 H35         6.7800    2.8799   -4.8117 H         1 <0>         0.4298
@<TRIPOS>BOND
     1    1    2 1
     2    1   46 1
     3    1   47 1
     4    1   48 1
     5    2    3 1
     6    2   49 1
     7    2   50 1
     8    3   11 1
     9    3    4 1
    10    4    9 ar
    11    4    5 ar
    12    5    6 ar
    13    5   51 1
    14    6    7 ar
    15    6   18 1
    16    7    8 ar
    17    7   52 1
    18    8    9 ar
    19    8   12 1
    20    9   10 1
    21   10   11 2
    22   10   53 1
    23   12   16 am
    24   12   13 1
    25   13   14 1
    26   13   54 1
    27   13   55 1
    28   14   15 1
    29   14   56 1
    30   14   57 1
    31   15   16 1
    32   15   58 1
    33   15   59 1
    34   16   17 2
    35   18   19 2
    36   18   20 am
    37   20   21 1
    38   20   60 1
    39   21   22 1
    40   21   23 1
    41   21   30 1
    42   23   24 1
    43   23   61 1
    44   23   62 1
    45   24   29 ar
    46   24   25 ar
    47   25   26 ar
    48   25   63 1
    49   26   27 ar
    50   26   64 1
    51   27   28 ar
    52   27   65 1
    53   28   29 ar
    54   28   66 1
    55   29   67 1
    56   30   31 1
    57   30   32 1
    58   30   45 1
    59   32   33 1
    60   32   68 1
    61   32   69 1
    62   33   34 1
    63   33   70 1
    64   33   78 1
    65   34   35 1
    66   34   71 1
    67   34   72 1
    68   35   40 ar
    69   35   36 ar
    70   36   37 ar
    71   36   73 1
    72   37   38 ar
    73   37   74 1
    74   38   39 ar
    75   38   75 1
    76   39   40 ar
    77   39   41 1
    78   40   76 1
    79   41   42 1
    80   41   43 1
    81   41   44 1
    82   45   77 1
@<TRIPOS>MOLECULE
CHEMBL449938
   77    81     0     0     0
SMALL
USER_CHARGES

@<TRIPOS>ATOM
      1 C1         -0.0187    1.5258    0.0104 C.3       1 <0>        -0.1743
      2 C2          0.0021   -0.0041    0.0020 C.3       1 <0>         0.1141
      3 N1         -1.3723   -0.5112    0.0124 N.pl3     1 <0>        -0.3099
      4 C3         -2.1202   -0.7911    1.1303 C.ar      1 <0>         0.0202
      5 C4         -1.8993   -0.7145    2.4973 C.ar      1 <0>        -0.0555
      6 C5         -2.9057   -1.0891    3.3822 C.ar      1 <0>        -0.0977
      7 C6         -4.1405   -1.5429    2.8984 C.ar      1 <0>        -0.0600
      8 C7         -4.3697   -1.6226    1.5416 C.ar      1 <0>         0.2170
      9 C8         -3.3593   -1.2465    0.6413 C.ar      1 <0>         0.0376
     10 N2         -3.2575   -1.2041   -0.7009 N.2       1 <0>        -0.2448
     11 N3         -2.0918   -0.7668   -1.0250 N.2       1 <0>         0.0016
     12 N4         -5.6025   -2.0762    1.0635 N.am      1 <0>        -0.5821
     13 C9         -5.9147   -3.4822    0.7816 C.3       1 <0>         0.1054
     14 C10        -7.4561   -3.5555    0.7090 C.3       1 <0>        -0.1305
     15 C11        -7.8223   -2.1068    0.3114 C.3       1 <0>        -0.1518
     16 C12        -6.6560   -1.2813    0.8084 C.2       1 <0>         0.5267
     17 O1         -6.6689   -0.0772    0.9532 O.2       1 <0>        -0.5168
     18 C13        -2.6715   -1.0085    4.8387 C.2       1 <0>         0.5699
     19 O2         -3.5488   -1.3349    5.6144 O.2       1 <0>        -0.4935
     20 N5         -1.4853   -0.5730    5.3074 N.am      1 <0>        -0.7245
     21 C14        -1.2531   -0.4930    6.7517 C.3       1 <0>         0.1274
     22 H1         -2.1779   -0.2077    7.2531 H         1 <0>         0.1123
     23 C15        -0.7914   -1.8564    7.2702 C.3       1 <0>        -0.1018
     24 C16        -1.9019   -2.8609    7.1000 C.ar      1 <0>        -0.0806
     25 C17        -2.8291   -3.0437    8.1088 C.ar      1 <0>        -0.1060
     26 C18        -3.8477   -3.9651    7.9526 C.ar      1 <0>        -0.1103
     27 C19        -3.9393   -4.7034    6.7875 C.ar      1 <0>        -0.1093
     28 C20        -3.0126   -4.5199    5.7783 C.ar      1 <0>        -0.1092
     29 C21        -1.9965   -3.5954    5.9328 C.ar      1 <0>        -0.1074
     30 C22        -0.1741    0.5534    7.0376 C.3       1 <0>         0.0743
     31 H2         -0.4630    1.5046    6.5905 H         1 <0>         0.1348
     32 C23        -0.0197    0.7267    8.5499 C.3       1 <0>        -0.0480
     33 N6          0.9286    1.8146    8.8238 N.4       1 <0>        -0.5052
     34 C24         1.0769    1.9809   10.2758 C.3       1 <0>         0.0467
     35 C25         2.0498    3.0970   10.5568 C.ar      1 <0>        -0.1688
     36 C26         3.3995    2.8233   10.6780 C.ar      1 <0>        -0.0603
     37 C27         4.2918    3.8469   10.9357 C.ar      1 <0>        -0.1108
     38 C28         3.8346    5.1446   11.0719 C.ar      1 <0>        -0.0357
     39 C29         2.4854    5.4183   10.9498 C.ar      1 <0>        -0.1743
     40 C30         1.5934    4.3950   10.6878 C.ar      1 <0>        -0.0436
     41 C31         1.9870    6.8327   11.0987 C.3       1 <0>         0.5059
     42 F1          3.0678    7.6835   11.3545 F         1 <0>        -0.1689
     43 F2          1.3505    7.2296    9.9178 F         1 <0>        -0.1728
     44 F3          1.0802    6.8981   12.1620 F         1 <0>        -0.1700
     45 O3          1.0680    0.1219    6.4783 O.3       1 <0>        -0.5498
     46 H3          1.0039    1.9031    0.0027 H         1 <0>         0.0902
     47 H4         -0.5459    1.8868   -0.8726 H         1 <0>         0.0734
     48 H5         -0.5289    1.8773    0.9072 H         1 <0>         0.0634
     49 H6          0.5123   -0.3556   -0.8948 H         1 <0>         0.1153
     50 H7          0.5293   -0.3651    0.8851 H         1 <0>         0.1039
     51 H8         -0.9491   -0.3657    2.8738 H         1 <0>         0.1352
     52 H9         -4.9160   -1.8319    3.5922 H         1 <0>         0.1531
     53 H10        -5.4776   -3.7820   -0.1708 H         1 <0>         0.0801
     54 H11        -5.5442   -4.1193    1.5847 H         1 <0>         0.0825
     55 H12        -7.7774   -4.2629   -0.0555 H         1 <0>         0.0980
     56 H13        -7.8805   -3.8128    1.6795 H         1 <0>         0.0865
     57 H14        -7.9211   -2.0216   -0.7708 H         1 <0>         0.1120
     58 H15        -8.7433   -1.7969    0.8051 H         1 <0>         0.1080
     59 H16        -0.7854   -0.3124    4.6885 H         1 <0>         0.4048
     60 H17         0.0829   -2.1824    6.7068 H         1 <0>         0.0823
     61 H18        -0.5337   -1.7752    8.3262 H         1 <0>         0.0806
     62 H19        -2.7576   -2.4669    9.0190 H         1 <0>         0.1125
     63 H20        -4.5718   -4.1085    8.7410 H         1 <0>         0.1202
     64 H21        -4.7347   -5.4237    6.6658 H         1 <0>         0.1208
     65 H22        -3.0839   -5.0969    4.8682 H         1 <0>         0.1181
     66 H23        -1.2746   -3.4494    5.1428 H         1 <0>         0.1099
     67 H24        -0.9876    0.9693    8.9885 H         1 <0>         0.1502
     68 H25         0.3545   -0.1998    8.9854 H         1 <0>         0.1439
     69 H26         1.8246    1.5899    8.4178 H         1 <0>         0.4327
     70 H27         0.1090    2.2236   10.7144 H         1 <0>         0.1436
     71 H28         1.4511    1.0545   10.7113 H         1 <0>         0.1447
     72 H29         3.7567    1.8096   10.5717 H         1 <0>         0.1436
     73 H30         5.3461    3.6330   11.0311 H         1 <0>         0.1512
     74 H31         4.5318    5.9443   11.2740 H         1 <0>         0.1532
     75 H32         0.5395    4.6095   10.5886 H         1 <0>         0.1442
     76 H33         1.3867   -0.7202    6.8309 H         1 <0>         0.3920
     77 H34         0.5822    2.6722    8.4207 H         1 <0>         0.4298
@<TRIPOS>BOND
     1    1    2 1
     2    1   46 1
     3    1   47 1
     4    1   48 1
     5    2    3 1
     6    2   49 1
     7    2   50 1
     8    3   11 1
     9    3    4 1
    10    4    9 ar
    11    4    5 ar
    12    5    6 ar
    13    5   51 1
    14    6    7 ar
    15    6   18 1
    16    7    8 ar
    17    7   52 1
    18    8    9 ar
    19    8   12 1
    20    9   10 1
    21   10   11 2
    22   12   16 am
    23   12   13 1
    24   13   14 1
    25   13   53 1
    26   13   54 1
    27   14   15 1
    28   14   55 1
    29   14   56 1
    30   15   16 1
    31   15   57 1
    32   15   58 1
    33   16   17 2
    34   18   19 2
    35   18   20 am
    36   20   21 1
    37   20   59 1
    38   21   22 1
    39   21   23 1
    40   21   30 1
    41   23   24 1
    42   23   60 1
    43   23   61 1
    44   24   29 ar
    45   24   25 ar
    46   25   26 ar
    47   25   62 1
    48   26   27 ar
    49   26   63 1
    50   27   28 ar
    51   27   64 1
    52   28   29 ar
    53   28   65 1
    54   29   66 1
    55   30   31 1
    56   30   32 1
    57   30   45 1
    58   32   33 1
    59   32   67 1
    60   32   68 1
    61   33   34 1
    62   33   69 1
    63   33   77 1
    64   34   35 1
    65   34   70 1
    66   34   71 1
    67   35   40 ar
    68   35   36 ar
    69   36   37 ar
    70   36   72 1
    71   37   38 ar
    72   37   73 1
    73   38   39 ar
    74   38   74 1
    75   39   40 ar
    76   39   41 1
    77   40   75 1
    78   41   42 1
    79   41   43 1
    80   41   44 1
    81   45   76 1
@<TRIPOS>MOLECULE
CHEMBL403819
   66    70     0     0     0
SMALL
USER_CHARGES

@<TRIPOS>ATOM
      1 C1         -0.0406    1.5451   -0.5620 C.ar      1 <0>        -0.1251
      2 C2         -0.0871    0.2452   -0.0905 C.ar      1 <0>        -0.1107
      3 C3          1.0778   -0.4771    0.0661 C.ar      1 <0>        -0.1311
      4 C4          2.3050    0.1062   -0.2524 C.ar      1 <0>        -0.0100
      5 C5          2.3450    1.4178   -0.7275 C.ar      1 <0>        -0.1052
      6 C6          1.1728    2.1292   -0.8795 C.ar      1 <0>        -0.1137
      7 C7          3.5575   -0.6620   -0.0866 C.2       1 <0>         0.0560
      8 C8          4.8117   -0.1393    0.0130 C.2       1 <0>        -0.1696
      9 C9          5.7029   -1.2147    0.1590 C.2       1 <0>        -0.1906
     10 C10         4.9774   -2.3538    0.1450 C.2       1 <0>         0.0463
     11 N1          3.6620   -2.0266    0.0002 N.pl3     1 <0>        -0.4178
     12 C11         2.5466   -2.9747   -0.0565 C.3       1 <0>         0.0740
     13 C12         1.9624   -3.1462    1.3220 C.2       1 <0>         0.4999
     14 O1          2.4851   -2.6030    2.2754 O.2       1 <0>        -0.5202
     15 N2          0.8737   -3.8927    1.4955 N.2       1 <0>        -0.7051
     16 C13         0.8760   -4.8713    2.3918 C.2       1 <0>         0.7038
     17 N3         -0.2099   -5.6845    2.5152 N.pl3     1 <0>        -0.8206
     18 N4          1.9644   -5.0626    3.1885 N.pl3     1 <0>        -0.7386
     19 C14         2.0064   -6.2003    4.1105 C.3       1 <0>         0.1061
     20 C15         3.2654   -6.1099    4.9751 C.3       1 <0>        -0.1354
     21 C16         3.3736   -7.3599    5.8507 C.3       1 <0>         0.0816
     22 O2          4.5495   -7.2755    6.6582 O.3       1 <0>        -0.5715
     23 C17         5.5284   -3.7505    0.2733 C.3       1 <0>         0.0204
     24 C18         4.7925   -4.4882    1.3937 C.3       1 <0>        -0.1041
     25 C19         5.3520   -5.9062    1.5240 C.3       1 <0>        -0.0839
     26 C20         6.8446   -5.8374    1.8533 C.3       1 <0>        -0.1082
     27 C21         7.5805   -5.0997    0.7329 C.3       1 <0>        -0.0857
     28 C22         7.0210   -3.6816    0.6026 C.3       1 <0>        -0.0949
     29 C23         7.3833   -5.8490   -0.5864 C.3       1 <0>        -0.1083
     30 C24         5.8908   -5.9179   -0.9157 C.3       1 <0>        -0.0849
     31 C25         5.1549   -6.6555    0.2047 C.3       1 <0>        -0.1081
     32 C26         5.3313   -4.4998   -1.0460 C.3       1 <0>        -0.1042
     33 H1         -0.9557    2.1048   -0.6870 H         1 <0>         0.1222
     34 H2         -1.0375   -0.2049    0.1559 H         1 <0>         0.1222
     35 H3          1.0401   -1.4916    0.4346 H         1 <0>         0.1234
     36 H4          3.2916    1.8750   -0.9754 H         1 <0>         0.1270
     37 H5          1.2024    3.1443   -1.2472 H         1 <0>         0.1253
     38 H6          5.0723    0.9084   -0.0152 H         1 <0>         0.1368
     39 H7          6.7756   -1.1437    0.2632 H         1 <0>         0.1372
     40 H8          1.7800   -2.5938   -0.7312 H         1 <0>         0.1185
     41 H9          2.9059   -3.9370   -0.4212 H         1 <0>         0.1196
     42 H10        -0.9848   -5.5483    1.9480 H         1 <0>         0.4263
     43 H11        -0.2081   -6.3998    3.1704 H         1 <0>         0.4112
     44 H12         2.7116   -4.4455    3.1453 H         1 <0>         0.4262
     45 H13         1.1241   -6.1822    4.7504 H         1 <0>         0.0743
     46 H14         2.0229   -7.1293    3.5406 H         1 <0>         0.0729
     47 H15         4.1431   -6.0393    4.3326 H         1 <0>         0.0814
     48 H16         3.2076   -5.2256    5.6098 H         1 <0>         0.0817
     49 H17         2.4959   -7.4306    6.4932 H         1 <0>         0.0498
     50 H18         3.4314   -8.2442    5.2160 H         1 <0>         0.0497
     51 H19         4.6825   -8.0362    7.2402 H         1 <0>         0.3852
     52 H20         4.9330   -3.9544    2.3336 H         1 <0>         0.0668
     53 H21         3.7292   -4.5372    1.1591 H         1 <0>         0.0506
     54 H22         4.8278   -6.4318    2.3222 H         1 <0>         0.0658
     55 H23         6.9851   -5.3035    2.7932 H         1 <0>         0.0631
     56 H24         7.2432   -6.8476    1.9461 H         1 <0>         0.0631
     57 H25         8.6438   -5.0506    0.9675 H         1 <0>         0.0741
     58 H26         7.5453   -3.1561   -0.1956 H         1 <0>         0.0702
     59 H27         7.1615   -3.1478    1.5425 H         1 <0>         0.0687
     60 H28         7.9076   -5.3235   -1.3846 H         1 <0>         0.0642
     61 H29         7.7819   -6.8592   -0.4936 H         1 <0>         0.0629
     62 H30         5.7503   -6.4517   -1.8556 H         1 <0>         0.0720
     63 H31         5.5535   -7.6658    0.2975 H         1 <0>         0.0643
     64 H32         4.0915   -6.7046   -0.0299 H         1 <0>         0.0563
     65 H33         4.2680   -4.5489   -1.2806 H         1 <0>         0.0556
     66 H34         5.8556   -3.9743   -1.8441 H         1 <0>         0.0706
@<TRIPOS>BOND
     1    1    6 ar
     2    1    2 ar
     3    1   33 1
     4    2    3 ar
     5    2   34 1
     6    3    4 ar
     7    3   35 1
     8    4    5 ar
     9    4    7 1
    10    5    6 ar
    11    5   36 1
    12    6   37 1
    13    7   11 1
    14    7    8 2
    15    8    9 1
    16    8   38 1
    17    9   10 2
    18    9   39 1
    19   10   11 1
    20   10   23 1
    21   11   12 1
    22   12   13 1
    23   12   40 1
    24   12   41 1
    25   13   14 2
    26   13   15 1
    27   15   16 2
    28   16   17 1
    29   16   18 1
    30   17   42 1
    31   17   43 1
    32   18   19 1
    33   18   44 1
    34   19   20 1
    35   19   45 1
    36   19   46 1
    37   20   21 1
    38   20   47 1
    39   20   48 1
    40   21   22 1
    41   21   49 1
    42   21   50 1
    43   22   51 1
    44   23   28 1
    45   23   32 1
    46   23   24 1
    47   24   25 1
    48   24   52 1
    49   24   53 1
    50   25   31 1
    51   25   26 1
    52   25   54 1
    53   26   27 1
    54   26   55 1
    55   26   56 1
    56   27   28 1
    57   27   29 1
    58   27   57 1
    59   28   58 1
    60   28   59 1
    61   29   30 1
    62   29   60 1
    63   29   61 1
    64   30   31 1
    65   30   32 1
    66   30   62 1
    67   31   63 1
    68   31   64 1
    69   32   65 1
    70   32   66 1
@<TRIPOS>MOLECULE
CHEMBL403819__1
   66    70     0     0     0
SMALL
USER_CHARGES

@<TRIPOS>ATOM
      1 C1          0.1849    1.6163   -0.0737 C.ar      1 <0>        -0.1245
      2 C2          0.1722    0.2813    0.2897 C.ar      1 <0>        -0.1112
      3 C3          1.3425   -0.4492    0.2849 C.ar      1 <0>        -0.1297
      4 C4          2.5410    0.1612   -0.0875 C.ar      1 <0>        -0.0104
      5 C5          2.5470    1.5081   -0.4530 C.ar      1 <0>        -0.1050
      6 C6          1.3697    2.2274   -0.4440 C.ar      1 <0>        -0.1138
      7 C7          3.7991   -0.6156   -0.0945 C.2       1 <0>         0.0583
      8 C8          5.0597   -0.1007   -0.0531 C.2       1 <0>        -0.1705
      9 C9          5.9547   -1.1827   -0.0769 C.2       1 <0>        -0.1898
     10 C10         5.2248   -2.3178   -0.1316 C.2       1 <0>         0.0434
     11 N1          3.9037   -1.9823   -0.1376 N.pl3     1 <0>        -0.4178
     12 C11         2.7827   -2.9243   -0.1856 C.3       1 <0>         0.0711
     13 C12         2.3178   -3.2237    1.2162 C.2       1 <0>         0.5031
     14 O1          2.8698   -2.7006    2.1643 O.2       1 <0>        -0.5156
     15 N2          1.3024   -4.0614    1.4162 N.2       1 <0>        -0.7068
     16 C13         1.4724   -5.1432    2.1658 C.2       1 <0>         0.7054
     17 N3          2.6524   -5.3421    2.8170 N.pl3     1 <0>        -0.8643
     18 N4          0.4671   -6.0548    2.2840 N.pl3     1 <0>        -0.7002
     19 C14         0.6548   -7.2491    3.1115 C.3       1 <0>         0.1134
     20 C15        -0.6158   -8.1006    3.0738 C.3       1 <0>        -0.1332
     21 C16        -0.4198   -9.3478    3.9380 C.3       1 <0>         0.0796
     22 O2         -1.6065  -10.1431    3.9027 O.3       1 <0>        -0.5730
     23 C17         5.7778   -3.7191   -0.1733 C.3       1 <0>         0.0204
     24 C18         5.1346   -4.5543    0.9356 C.3       1 <0>        -0.1071
     25 C19         5.6960   -5.9770    0.8932 C.3       1 <0>        -0.0834
     26 C20         7.2112   -5.9338    1.1009 C.3       1 <0>        -0.1089
     27 C21         7.8543   -5.0985   -0.0080 C.3       1 <0>        -0.0859
     28 C22         7.2930   -3.6759    0.0343 C.3       1 <0>        -0.0949
     29 C23         7.5436   -5.7292   -1.3669 C.3       1 <0>        -0.1085
     30 C24         6.0284   -5.7724   -1.5746 C.3       1 <0>        -0.0853
     31 C25         5.3852   -6.6076   -0.4657 C.3       1 <0>        -0.1085
     32 C26         5.4670   -4.3497   -1.5322 C.3       1 <0>        -0.1044
     33 H1         -0.7347    2.1826   -0.0726 H         1 <0>         0.1224
     34 H2         -0.7559   -0.1897    0.5780 H         1 <0>         0.1223
     35 H3          1.3312   -1.4911    0.5691 H         1 <0>         0.1219
     36 H4          3.4712    1.9864   -0.7418 H         1 <0>         0.1271
     37 H5          1.3730    3.2698   -0.7265 H         1 <0>         0.1254
     38 H6          5.3223    0.9460   -0.0100 H         1 <0>         0.1370
     39 H7          7.0326   -1.1186   -0.0560 H         1 <0>         0.1372
     40 H8          1.9631   -2.4850   -0.7542 H         1 <0>         0.1189
     41 H9          3.1046   -3.8479   -0.6667 H         1 <0>         0.1192
     42 H10         3.3392   -4.6575    2.7962 H         1 <0>         0.4240
     43 H11         2.8057   -6.1684    3.3014 H         1 <0>         0.4006
     44 H12        -0.3731   -5.9132    1.8204 H         1 <0>         0.4266
     45 H13         1.4929   -7.8299    2.7264 H         1 <0>         0.0733
     46 H14         0.8615   -6.9503    4.1392 H         1 <0>         0.0743
     47 H15        -1.4540   -7.5198    3.4589 H         1 <0>         0.0836
     48 H16        -0.8226   -8.3994    2.0461 H         1 <0>         0.0835
     49 H17         0.4184   -9.9286    3.5529 H         1 <0>         0.0503
     50 H18        -0.2131   -9.0490    4.9656 H         1 <0>         0.0505
     51 H19        -1.5537  -10.9520    4.4300 H         1 <0>         0.3864
     52 H20         5.3560   -4.1050    1.9037 H         1 <0>         0.0665
     53 H21         4.0551   -4.5851    0.7876 H         1 <0>         0.0527
     54 H22         5.2378   -6.5720    1.6832 H         1 <0>         0.0660
     55 H23         7.4325   -5.4845    2.0690 H         1 <0>         0.0628
     56 H24         7.6111   -6.9473    1.0707 H         1 <0>         0.0636
     57 H25         8.9338   -5.0678    0.1400 H         1 <0>         0.0742
     58 H26         7.7512   -3.0808   -0.7557 H         1 <0>         0.0705
     59 H27         7.5143   -3.2266    1.0025 H         1 <0>         0.0687
     60 H28         8.0018   -5.1342   -2.1569 H         1 <0>         0.0644
     61 H29         7.9435   -6.7427   -1.3971 H         1 <0>         0.0631
     62 H30         5.8070   -6.2217   -2.5427 H         1 <0>         0.0723
     63 H31         5.7851   -7.6212   -0.4958 H         1 <0>         0.0647
     64 H32         4.3057   -6.6384   -0.6136 H         1 <0>         0.0569
     65 H33         4.3875   -4.3805   -1.6802 H         1 <0>         0.0560
     66 H34         5.9252   -3.7547   -2.3222 H         1 <0>         0.0708
@<TRIPOS>BOND
     1    1    6 ar
     2    1    2 ar
     3    1   33 1
     4    2    3 ar
     5    2   34 1
     6    3    4 ar
     7    3   35 1
     8    4    5 ar
     9    4    7 1
    10    5    6 ar
    11    5   36 1
    12    6   37 1
    13    7   11 1
    14    7    8 2
    15    8    9 1
    16    8   38 1
    17    9   10 2
    18    9   39 1
    19   10   11 1
    20   10   23 1
    21   11   12 1
    22   12   13 1
    23   12   40 1
    24   12   41 1
    25   13   14 2
    26   13   15 1
    27   15   16 2
    28   16   17 1
    29   16   18 1
    30   17   42 1
    31   17   43 1
    32   18   19 1
    33   18   44 1
    34   19   20 1
    35   19   45 1
    36   19   46 1
    37   20   21 1
    38   20   47 1
    39   20   48 1
    40   21   22 1
    41   21   49 1
    42   21   50 1
    43   22   51 1
    44   23   28 1
    45   23   32 1
    46   23   24 1
    47   24   25 1
    48   24   52 1
    49   24   53 1
    50   25   31 1
    51   25   26 1
    52   25   54 1
    53   26   27 1
    54   26   55 1
    55   26   56 1
    56   27   28 1
    57   27   29 1
    58   27   57 1
    59   28   58 1
    60   28   59 1
    61   29   30 1
    62   29   60 1
    63   29   61 1
    64   30   31 1
    65   30   32 1
    66   30   62 1
    67   31   63 1
    68   31   64 1
    69   32   65 1
    70   32   66 1
@<TRIPOS>MOLECULE
CHEMBL1077232
   92    94     0     0     0
SMALL
USER_CHARGES

@<TRIPOS>ATOM
      1 C1          0.3032   -2.9004    1.9813 C.3       1 <0>        -0.1375
      2 C2         -0.1119   -2.1052    0.7418 C.3       1 <0>        -0.1457
      3 C3          0.8498   -2.3899   -0.3830 C.2       1 <0>         0.5146
      4 O1          1.7760   -3.1536   -0.2103 O.2       1 <0>        -0.5333
      5 N1          0.6806   -1.7958   -1.5809 N.am      1 <0>        -0.6102
      6 C4         -0.4382   -0.8733   -1.7895 C.3       1 <0>         0.0692
      7 C5          1.6155   -2.0726   -2.6743 C.3       1 <0>         0.1828
      8 C6          1.2072   -1.2683   -3.9102 C.3       1 <0>        -0.1609
      9 C7          3.0298   -1.6723   -2.2497 C.3       1 <0>        -0.1668
     10 C8          1.5857   -3.5661   -3.0050 C.3       1 <0>        -0.0958
     11 H1          1.8522   -4.1401   -2.1176 H         1 <0>         0.0947
     12 C9          0.1799   -3.9591   -3.4634 C.3       1 <0>        -0.1143
     13 C10         0.1502   -5.4526   -3.7941 C.3       1 <0>        -0.1182
     14 C11         1.1522   -5.7475   -4.9121 C.3       1 <0>        -0.1036
     15 C12         2.5580   -5.3545   -4.4537 C.3       1 <0>        -0.1041
     16 H2          2.8245   -5.9285   -3.5663 H         1 <0>         0.0970
     17 C13         2.5878   -3.8610   -4.1230 C.3       1 <0>        -0.0906
     18 C14         3.5450   -5.6449   -5.5549 C.2       1 <0>         0.5215
     19 O2          4.2070   -4.7459   -6.0286 O.2       1 <0>        -0.4947
     20 N2          3.6920   -6.9038   -6.0134 N.am      1 <0>        -0.7434
     21 C15         4.6514   -7.1861   -7.0839 C.3       1 <0>         0.1260
     22 H3          4.6818   -6.3445   -7.7759 H         1 <0>         0.1101
     23 C16         6.0409   -7.4002   -6.4801 C.3       1 <0>        -0.0851
     24 C17         6.5162   -6.1181   -5.8465 C.ar      1 <0>        -0.0768
     25 C18         7.2304   -5.2009   -6.5945 C.ar      1 <0>        -0.1068
     26 C19         7.6665   -4.0249   -6.0134 C.ar      1 <0>        -0.1107
     27 C20         7.3880   -3.7659   -4.6844 C.ar      1 <0>        -0.1125
     28 C21         6.6730   -4.6827   -3.9366 C.ar      1 <0>        -0.1102
     29 C22         6.2333   -5.8568   -4.5189 C.ar      1 <0>        -0.1085
     30 C23         4.2215   -8.4482   -7.8343 C.3       1 <0>         0.0779
     31 H4          4.9354   -8.6582   -8.6308 H         1 <0>         0.1400
     32 C24         2.8321   -8.2341   -8.4381 C.3       1 <0>        -0.0483
     33 N3          2.4193   -9.4459   -9.1586 N.4       1 <0>        -0.5038
     34 C25         1.0852   -9.2403   -9.7384 C.3       1 <0>         0.0471
     35 C26         0.6618  -10.4834  -10.4775 C.ar      1 <0>        -0.1648
     36 C27         0.9730  -10.6314  -11.8164 C.ar      1 <0>        -0.0980
     37 C28         0.5846  -11.7715  -12.4944 C.ar      1 <0>        -0.1099
     38 C29        -0.1148  -12.7643  -11.8334 C.ar      1 <0>        -0.0787
     39 C30        -0.4251  -12.6168  -10.4947 C.ar      1 <0>        -0.0651
     40 C31        -0.0329  -11.4782   -9.8155 C.ar      1 <0>        -0.0927
     41 C32        -1.1879  -13.6987   -9.7744 C.3       1 <0>        -0.0616
     42 C33        -2.5464  -13.9003  -10.4488 C.3       1 <0>        -0.1500
     43 C34        -0.3931  -15.0050   -9.8279 C.3       1 <0>        -0.1489
     44 O3          4.1818   -9.5515   -6.9271 O.3       1 <0>        -0.5437
     45 H5          0.2882   -3.9657    1.7513 H         1 <0>         0.0601
     46 H6          1.3095   -2.6074    2.2807 H         1 <0>         0.0617
     47 H7         -0.3924   -2.6944    2.7948 H         1 <0>         0.0619
     48 H8         -1.1182   -2.3982    0.4424 H         1 <0>         0.0910
     49 H9         -0.0969   -1.0398    0.9718 H         1 <0>         0.0922
     50 H10        -0.1010    0.1500   -1.6244 H         1 <0>         0.0583
     51 H11        -0.8067   -0.9742   -2.8104 H         1 <0>         0.0747
     52 H12        -1.2392   -1.1094   -1.0890 H         1 <0>         0.0748
     53 H13         1.2284   -0.2043   -3.6746 H         1 <0>         0.0633
     54 H14         1.9028   -1.4743   -4.7238 H         1 <0>         0.0737
     55 H15         0.1996   -1.5535   -4.2127 H         1 <0>         0.0656
     56 H16         3.3207   -2.2453   -1.3692 H         1 <0>         0.0788
     57 H17         3.7254   -1.8782   -3.0632 H         1 <0>         0.0666
     58 H18         3.0510   -0.6083   -2.0141 H         1 <0>         0.0536
     59 H19        -0.5339   -3.7490   -2.6670 H         1 <0>         0.0627
     60 H20        -0.0866   -3.3851   -4.3509 H         1 <0>         0.0634
     61 H21         0.4167   -6.0266   -2.9067 H         1 <0>         0.0653
     62 H22        -0.8514   -5.7326   -4.1207 H         1 <0>         0.0652
     63 H23         1.1310   -6.8115   -5.1477 H         1 <0>         0.0555
     64 H24         0.8857   -5.1735   -5.7996 H         1 <0>         0.0665
     65 H25         2.3213   -3.2870   -5.0105 H         1 <0>         0.0709
     66 H26         3.5893   -3.5810   -3.7964 H         1 <0>         0.0768
     67 H27         3.1625   -7.6228   -5.6345 H         1 <0>         0.3907
     68 H28         5.9914   -8.1830   -5.7232 H         1 <0>         0.0832
     69 H29         6.7363   -7.6972   -7.2651 H         1 <0>         0.0834
     70 H30         7.4480   -5.4032   -7.6329 H         1 <0>         0.1130
     71 H31         8.2251   -3.3085   -6.5976 H         1 <0>         0.1185
     72 H32         7.7293   -2.8474   -4.2302 H         1 <0>         0.1187
     73 H33         6.4557   -4.4806   -2.8982 H         1 <0>         0.1172
     74 H34         5.6715   -6.5714   -3.9357 H         1 <0>         0.1078
     75 H35         2.1182   -8.0240   -7.6416 H         1 <0>         0.1352
     76 H36         2.8624   -7.3925   -9.1301 H         1 <0>         0.1465
     77 H37         3.0801   -9.6403   -9.8959 H         1 <0>         0.4291
     78 H38         0.3714   -9.0303   -8.9419 H         1 <0>         0.1363
     79 H39         1.1156   -8.3987  -10.4304 H         1 <0>         0.1381
     80 H40         1.5193   -9.8559  -12.3327 H         1 <0>         0.1306
     81 H41         0.8271  -11.8867  -13.5405 H         1 <0>         0.1363
     82 H42        -0.4189  -13.6548  -12.3633 H         1 <0>         0.1345
     83 H43        -0.2721  -11.3646   -8.7685 H         1 <0>         0.1296
     84 H44        -1.3379  -13.4069   -8.7350 H         1 <0>         0.0813
     85 H45        -2.3963  -14.1920  -11.4882 H         1 <0>         0.0597
     86 H46        -3.0980  -14.6828   -9.9278 H         1 <0>         0.0669
     87 H47        -3.1126  -12.9697  -10.4107 H         1 <0>         0.0577
     88 H48         0.5747  -14.8613   -9.3475 H         1 <0>         0.0561
     89 H49        -0.9448  -15.7875   -9.3069 H         1 <0>         0.0668
     90 H50        -0.2430  -15.2967  -10.8673 H         1 <0>         0.0597
     91 H51         3.5659   -9.4335   -6.1910 H         1 <0>         0.3842
     92 H52         2.3912  -10.2249   -8.5181 H         1 <0>         0.4308
@<TRIPOS>BOND
     1    1    2 1
     2    1   45 1
     3    1   46 1
     4    1   47 1
     5    2    3 1
     6    2   48 1
     7    2   49 1
     8    3    4 2
     9    3    5 am
    10    5    6 1
    11    5    7 1
    12    6   50 1
    13    6   51 1
    14    6   52 1
    15    7    8 1
    16    7    9 1
    17    7   10 1
    18    8   53 1
    19    8   54 1
    20    8   55 1
    21    9   56 1
    22    9   57 1
    23    9   58 1
    24   10   11 1
    25   10   17 1
    26   10   12 1
    27   12   13 1
    28   12   59 1
    29   12   60 1
    30   13   14 1
    31   13   61 1
    32   13   62 1
    33   14   15 1
    34   14   63 1
    35   14   64 1
    36   15   16 1
    37   15   17 1
    38   15   18 1
    39   17   65 1
    40   17   66 1
    41   18   19 2
    42   18   20 am
    43   20   21 1
    44   20   67 1
    45   21   22 1
    46   21   23 1
    47   21   30 1
    48   23   24 1
    49   23   68 1
    50   23   69 1
    51   24   29 ar
    52   24   25 ar
    53   25   26 ar
    54   25   70 1
    55   26   27 ar
    56   26   71 1
    57   27   28 ar
    58   27   72 1
    59   28   29 ar
    60   28   73 1
    61   29   74 1
    62   30   31 1
    63   30   32 1
    64   30   44 1
    65   32   33 1
    66   32   75 1
    67   32   76 1
    68   33   34 1
    69   33   77 1
    70   33   92 1
    71   34   35 1
    72   34   78 1
    73   34   79 1
    74   35   40 ar
    75   35   36 ar
    76   36   37 ar
    77   36   80 1
    78   37   38 ar
    79   37   81 1
    80   38   39 ar
    81   38   82 1
    82   39   40 ar
    83   39   41 1
    84   40   83 1
    85   41   42 1
    86   41   43 1
    87   41   84 1
    88   42   85 1
    89   42   86 1
    90   42   87 1
    91   43   88 1
    92   43   89 1
    93   43   90 1
    94   44   91 1
@<TRIPOS>MOLECULE
CHEMBL561095
   77    81     0     0     0
SMALL
USER_CHARGES

@<TRIPOS>ATOM
      1 C1         -0.0187    1.5258    0.0104 C.3       1 <0>        -0.1738
      2 C2          0.0021   -0.0041    0.0020 C.3       1 <0>         0.1325
      3 N1         -1.3723   -0.5112    0.0124 N.pl3     1 <0>        -0.6357
      4 C3         -2.0866   -0.7793    1.2723 C.3       1 <0>         0.0893
      5 C4         -3.4124   -0.0232    1.1913 C.3       1 <0>         0.0847
      6 N2         -4.1839   -0.3759    0.0393 N.3       1 <0>        -0.5872
      7 C5         -5.1198   -1.4537    0.1684 C.3       1 <0>         0.0919
      8 C6         -6.5166   -1.0840   -0.2751 C.3       1 <0>        -0.6358
      9 S1         -6.8338   -1.6753   -1.9440 S.o2      1 <0>         2.5927
     10 O1         -6.5642   -3.0661   -2.0548 O.2       1 <0>        -0.9442
     11 O2         -8.0224   -1.1039   -2.4730 O.2       1 <0>        -0.9378
     12 N3         -5.5462   -0.8875   -2.7185 N.pl3     1 <0>        -0.9783
     13 C7         -4.2162   -1.3392   -2.2730 C.3       1 <0>         0.1694
     14 C8         -3.5224   -0.4311   -1.2947 C.3       1 <0>         0.1314
     15 C9         -2.0674   -0.7570   -1.1667 C.2       1 <0>         0.1791
     16 C10        -1.3827   -1.2982   -2.1823 C.2       1 <0>        -0.2379
     17 C11        -2.0575   -1.5577   -3.4667 C.2       1 <0>        -0.1150
     18 C12        -3.3917   -1.5907   -3.5077 C.2       1 <0>        -0.0728
     19 C13        -1.2665   -1.7963   -4.6932 C.2       1 <0>         0.5673
     20 O3         -1.8309   -2.0095   -5.7485 O.2       1 <0>        -0.5416
     21 N4          0.0801   -1.7773   -4.6410 N.am      1 <0>        -0.7166
     22 C14         0.8637   -2.0136   -5.8560 C.3       1 <0>         0.1257
     23 H1          0.3430   -1.5862   -6.7130 H         1 <0>         0.1069
     24 C15         2.2372   -1.3549   -5.7133 C.3       1 <0>        -0.0825
     25 C16         2.0710    0.1406   -5.6307 C.ar      1 <0>        -0.0947
     26 C17         2.0767    0.9014   -6.7848 C.ar      1 <0>        -0.1130
     27 C18         1.9242    2.2732   -6.7091 C.ar      1 <0>        -0.1138
     28 C19         1.7656    2.8842   -5.4793 C.ar      1 <0>        -0.1141
     29 C20         1.7590    2.1233   -4.3252 C.ar      1 <0>        -0.1135
     30 C21         1.9071    0.7510   -4.4013 C.ar      1 <0>        -0.1109
     31 C22         1.0392   -3.5191   -6.0648 C.3       1 <0>         0.0737
     32 H2          1.5599   -3.9465   -5.2079 H         1 <0>         0.1249
     33 C23        -0.3343   -4.1778   -6.2076 C.3       1 <0>        -0.0392
     34 N5         -0.1723   -5.6356   -6.2881 N.4       1 <0>        -0.4754
     35 C24        -1.4911   -6.2681   -6.4251 C.3       1 <0>        -0.0834
     36 C25        -1.9523   -7.1918   -5.2960 C.3       1 <0>        -0.1541
     37 C26        -1.5293   -7.7820   -6.6427 C.3       1 <0>        -0.1536
     38 O4          1.8036   -3.7497   -7.2500 O.3       1 <0>        -0.5468
     39 C27        -5.7390    0.1470   -3.7379 C.3       1 <0>         0.0963
     40 H3          1.0039    1.9031    0.0027 H         1 <0>         0.0666
     41 H4         -0.5459    1.8868   -0.8726 H         1 <0>         0.0562
     42 H5         -0.5289    1.8773    0.9072 H         1 <0>         0.0584
     43 H6          0.5123   -0.3556   -0.8948 H         1 <0>         0.0704
     44 H7          0.5293   -0.3651    0.8851 H         1 <0>         0.0757
     45 H8         -2.2723   -1.8483    1.3759 H         1 <0>         0.0632
     46 H9         -1.5014   -0.4172    2.1176 H         1 <0>         0.0925
     47 H10        -3.9964   -0.2412    2.0855 H         1 <0>         0.0893
     48 H11        -3.2055    1.0466    1.1616 H         1 <0>         0.0812
     49 H12        -4.7721   -2.2936   -0.4331 H         1 <0>         0.0609
     50 H13        -5.1546   -1.7644    1.2126 H         1 <0>         0.0877
     51 H14        -7.2398   -1.5307    0.4072 H         1 <0>         0.1395
     52 H15        -6.6251    0.0004   -0.2521 H         1 <0>         0.1543
     53 H16        -4.3510   -2.2994   -1.7752 H         1 <0>         0.1115
     54 H17        -3.5695    0.5751   -1.7112 H         1 <0>         0.0996
     55 H18        -0.3381   -1.5437   -2.0607 H         1 <0>         0.1202
     56 H19        -3.8886   -1.7885   -4.4459 H         1 <0>         0.1431
     57 H20         0.5304   -1.6071   -3.7989 H         1 <0>         0.4091
     58 H21         2.7215   -1.7173   -4.8065 H         1 <0>         0.0827
     59 H22         2.8517   -1.6050   -6.5781 H         1 <0>         0.1025
     60 H23         2.2007    0.4241   -7.7457 H         1 <0>         0.1212
     61 H24         1.9294    2.8677   -7.6107 H         1 <0>         0.1249
     62 H25         1.6472    3.9560   -5.4201 H         1 <0>         0.1243
     63 H26         1.6354    2.6006   -3.3644 H         1 <0>         0.1227
     64 H27         1.8982    0.1561   -3.4999 H         1 <0>         0.1145
     65 H28        -0.9488   -3.9277   -5.3427 H         1 <0>         0.1414
     66 H29        -0.8186   -3.8154   -7.1144 H         1 <0>         0.1435
     67 H30         0.3966   -5.8671   -7.0886 H         1 <0>         0.4302
     68 H31        -2.2503   -5.6681   -6.9269 H         1 <0>         0.1774
     69 H32        -1.2773   -7.3302   -4.4515 H         1 <0>         0.1199
     70 H33        -3.0153   -7.1996   -5.0547 H         1 <0>         0.1344
     71 H34        -2.3140   -8.1781   -7.2874 H         1 <0>         0.1342
     72 H35        -0.5760   -8.3088   -6.6842 H         1 <0>         0.1208
     73 H36         1.3993   -3.3953   -8.0539 H         1 <0>         0.3929
     74 H37        -6.8056    0.3065   -3.8964 H         1 <0>         0.0922
     75 H38        -5.2783    1.0766   -3.4038 H         1 <0>         0.0617
     76 H39        -5.2767   -0.1726   -4.6718 H         1 <0>         0.0628
     77 H40         0.2760   -5.9711   -5.4486 H         1 <0>         0.4222
@<TRIPOS>BOND
     1    1    2 1
     2    1   40 1
     3    1   41 1
     4    1   42 1
     5    2    3 1
     6    2   43 1
     7    2   44 1
     8    3   15 1
     9    3    4 1
    10    4    5 1
    11    4   45 1
    12    4   46 1
    13    5    6 1
    14    5   47 1
    15    5   48 1
    16    6   14 1
    17    6    7 1
    18    7    8 1
    19    7   49 1
    20    7   50 1
    21    8    9 1
    22    8   51 1
    23    8   52 1
    24    9   10 2
    25    9   11 2
    26    9   12 1
    27   12   13 1
    28   12   39 1
    29   13   18 1
    30   13   14 1
    31   13   53 1
    32   14   15 1
    33   14   54 1
    34   15   16 2
    35   16   17 1
    36   16   55 1
    37   17   18 2
    38   17   19 1
    39   18   56 1
    40   19   20 2
    41   19   21 am
    42   21   22 1
    43   21   57 1
    44   22   23 1
    45   22   24 1
    46   22   31 1
    47   24   25 1
    48   24   58 1
    49   24   59 1
    50   25   30 ar
    51   25   26 ar
    52   26   27 ar
    53   26   60 1
    54   27   28 ar
    55   27   61 1
    56   28   29 ar
    57   28   62 1
    58   29   30 ar
    59   29   63 1
    60   30   64 1
    61   31   32 1
    62   31   33 1
    63   31   38 1
    64   33   34 1
    65   33   65 1
    66   33   66 1
    67   34   35 1
    68   34   67 1
    69   34   77 1
    70   35   37 1
    71   35   36 1
    72   35   68 1
    73   36   37 1
    74   36   69 1
    75   36   70 1
    76   37   71 1
    77   37   72 1
    78   38   73 1
    79   39   74 1
    80   39   75 1
    81   39   76 1
@<TRIPOS>MOLECULE
CHEMBL561095__1
   77    81     0     0     0
SMALL
USER_CHARGES

@<TRIPOS>ATOM
      1 C1         -0.0187    1.5258    0.0104 C.3       1 <0>        -0.1699
      2 C2          0.0021   -0.0041    0.0020 C.3       1 <0>         0.1391
      3 N1         -1.3723   -0.5112    0.0124 N.pl3     1 <0>        -0.6252
      4 C3         -2.1132   -0.7888    1.2631 C.3       1 <0>         0.1268
      5 C4         -3.3923    0.0551    1.2978 C.3       1 <0>         0.0647
      6 N2         -3.6485    0.6275   -0.0188 N.3       1 <0>        -0.5732
      7 C5         -4.7652    1.4902   -0.1680 C.3       1 <0>         0.1139
      8 C6         -4.2383    2.7336   -0.8673 C.3       1 <0>        -0.6672
      9 S1         -4.4657    2.6950   -2.6151 S.o2      1 <0>         2.6183
     10 O1         -3.7587    3.7595   -3.2366 O.2       1 <0>        -0.9447
     11 O2         -5.8231    2.4267   -2.9386 O.2       1 <0>        -0.9476
     12 N3         -3.6139    1.2862   -3.0285 N.pl3     1 <0>        -0.9691
     13 C7         -4.0658    0.0141   -2.4865 C.3       1 <0>         0.1926
     14 C8         -3.5550   -0.3888   -1.1022 C.3       1 <0>         0.0978
     15 C9         -2.0904   -0.7657   -1.1548 C.2       1 <0>         0.2113
     16 C10        -1.5733   -1.3273   -2.2358 C.2       1 <0>        -0.2402
     17 C11        -2.4670   -1.6457   -3.3707 C.2       1 <0>        -0.0955
     18 C12        -3.6492   -1.0500   -3.4866 C.2       1 <0>        -0.0858
     19 C13        -2.0497   -2.6410   -4.3817 C.2       1 <0>         0.5641
     20 O3         -2.7831   -2.9037   -5.3148 O.2       1 <0>        -0.5419
     21 N4         -0.8562   -3.2568   -4.2685 N.am      1 <0>        -0.7157
     22 C14        -0.4428   -4.2428   -5.2701 C.3       1 <0>         0.1256
     23 H1         -0.8128   -3.9421   -6.2503 H         1 <0>         0.1066
     24 C15         1.0846   -4.3249   -5.3047 C.3       1 <0>        -0.0823
     25 C16         1.6476   -3.0112   -5.7824 C.ar      1 <0>        -0.0950
     26 C17         1.8539   -2.7977   -7.1325 C.ar      1 <0>        -0.1133
     27 C18         2.3704   -1.5927   -7.5707 C.ar      1 <0>        -0.1136
     28 C19         2.6801   -0.6009   -6.6589 C.ar      1 <0>        -0.1134
     29 C20         2.4730   -0.8141   -5.3088 C.ar      1 <0>        -0.1135
     30 C21         1.9525   -2.0176   -4.8710 C.ar      1 <0>        -0.1121
     31 C22        -1.0190   -5.6125   -4.9056 C.3       1 <0>         0.0739
     32 H2         -0.6490   -5.9131   -3.9254 H         1 <0>         0.1248
     33 C23        -2.5464   -5.5303   -4.8710 C.3       1 <0>        -0.0386
     34 N5         -3.0953   -6.8109   -4.4053 N.4       1 <0>        -0.4758
     35 C24        -4.5618   -6.7320   -4.3721 C.3       1 <0>        -0.0824
     36 C25        -5.2457   -6.8659   -3.0100 C.3       1 <0>        -0.1544
     37 C26        -5.3302   -8.0085   -4.0240 C.3       1 <0>        -0.1538
     38 O4         -0.6158   -6.5742   -5.8825 O.3       1 <0>        -0.5470
     39 C27        -2.4480    1.3499   -3.9133 C.3       1 <0>         0.0895
     40 H3          1.0039    1.9031    0.0027 H         1 <0>         0.0623
     41 H4         -0.5459    1.8868   -0.8726 H         1 <0>         0.0571
     42 H5         -0.5289    1.8773    0.9072 H         1 <0>         0.0572
     43 H6          0.5123   -0.3556   -0.8948 H         1 <0>         0.0696
     44 H7          0.5293   -0.3651    0.8851 H         1 <0>         0.0721
     45 H8         -2.3744   -1.8463    1.3035 H         1 <0>         0.0630
     46 H9         -1.4879   -0.5362    2.1195 H         1 <0>         0.0877
     47 H10        -4.2333   -0.5745    1.5884 H         1 <0>         0.0439
     48 H11        -3.2759    0.8586    2.0251 H         1 <0>         0.0867
     49 H12        -5.5310    1.0117   -0.7785 H         1 <0>         0.0652
     50 H13        -5.1710    1.7521    0.8092 H         1 <0>         0.0933
     51 H14        -4.7539    3.6061   -0.4661 H         1 <0>         0.1396
     52 H15        -3.1736    2.8304   -0.6546 H         1 <0>         0.1553
     53 H16        -5.1549    0.0298   -2.4455 H         1 <0>         0.1027
     54 H17        -4.1064   -1.2730   -0.7825 H         1 <0>         0.0745
     55 H18        -0.5177   -1.5496   -2.2883 H         1 <0>         0.1198
     56 H19        -4.3120   -1.3155   -4.2969 H         1 <0>         0.1420
     57 H20        -0.2710   -3.0472   -3.5239 H         1 <0>         0.4104
     58 H21         1.4598   -4.5385   -4.3038 H         1 <0>         0.0826
     59 H22         1.3904   -5.1200   -5.9847 H         1 <0>         0.1019
     60 H23         1.6119   -3.5725   -7.8449 H         1 <0>         0.1208
     61 H24         2.5322   -1.4261   -8.6254 H         1 <0>         0.1248
     62 H25         3.0842    0.3403   -7.0012 H         1 <0>         0.1248
     63 H26         2.7153   -0.0394   -4.5964 H         1 <0>         0.1236
     64 H27         1.7872   -2.1828   -3.8166 H         1 <0>         0.1147
     65 H28        -2.8522   -4.7352   -4.1910 H         1 <0>         0.1414
     66 H29        -2.9216   -5.3167   -5.8718 H         1 <0>         0.1433
     67 H30        -2.8122   -7.5469   -5.0348 H         1 <0>         0.4305
     68 H31        -5.0127   -6.0552   -5.0977 H         1 <0>         0.1774
     69 H32        -4.6076   -7.0124   -2.1386 H         1 <0>         0.1195
     70 H33        -6.1469   -6.2768   -2.8393 H         1 <0>         0.1333
     71 H34        -6.2868   -8.1712   -4.5204 H         1 <0>         0.1342
     72 H35        -4.7476   -8.9068   -3.8197 H         1 <0>         0.1210
     73 H36        -0.9110   -6.3702   -6.7805 H         1 <0>         0.3930
     74 H37        -2.2731    2.3841   -4.2100 H         1 <0>         0.0886
     75 H38        -1.5719    0.9696   -3.3879 H         1 <0>         0.0621
     76 H39        -2.6314    0.7435   -4.8003 H         1 <0>         0.0606
     77 H40        -2.7480   -7.0086   -3.4788 H         1 <0>         0.4222
@<TRIPOS>BOND
     1    1    2 1
     2    1   40 1
     3    1   41 1
     4    1   42 1
     5    2    3 1
     6    2   43 1
     7    2   44 1
     8    3   15 1
     9    3    4 1
    10    4    5 1
    11    4   45 1
    12    4   46 1
    13    5    6 1
    14    5   47 1
    15    5   48 1
    16    6   14 1
    17    6    7 1
    18    7    8 1
    19    7   49 1
    20    7   50 1
    21    8    9 1
    22    8   51 1
    23    8   52 1
    24    9   10 2
    25    9   11 2
    26    9   12 1
    27   12   13 1
    28   12   39 1
    29   13   18 1
    30   13   14 1
    31   13   53 1
    32   14   15 1
    33   14   54 1
    34   15   16 2
    35   16   17 1
    36   16   55 1
    37   17   18 2
    38   17   19 1
    39   18   56 1
    40   19   20 2
    41   19   21 am
    42   21   22 1
    43   21   57 1
    44   22   23 1
    45   22   24 1
    46   22   31 1
    47   24   25 1
    48   24   58 1
    49   24   59 1
    50   25   30 ar
    51   25   26 ar
    52   26   27 ar
    53   26   60 1
    54   27   28 ar
    55   27   61 1
    56   28   29 ar
    57   28   62 1
    58   29   30 ar
    59   29   63 1
    60   30   64 1
    61   31   32 1
    62   31   33 1
    63   31   38 1
    64   33   34 1
    65   33   65 1
    66   33   66 1
    67   34   35 1
    68   34   67 1
    69   34   77 1
    70   35   37 1
    71   35   36 1
    72   35   68 1
    73   36   37 1
    74   36   69 1
    75   36   70 1
    76   37   71 1
    77   37   72 1
    78   38   73 1
    79   39   74 1
    80   39   75 1
    81   39   76 1
@<TRIPOS>MOLECULE
CHEMBL561095__2
   77    81     0     0     0
SMALL
USER_CHARGES

@<TRIPOS>ATOM
      1 C1         -0.0187    1.5258    0.0104 C.3       1 <0>        -0.1732
      2 C2          0.0021   -0.0041    0.0020 C.3       1 <0>         0.1184
      3 N1         -1.3758   -0.5124    0.0124 N.pl3     1 <0>        -0.6097
      4 C3         -1.9988   -0.7823    1.3078 C.3       1 <0>         0.1241
      5 C4         -3.3466   -1.4644    1.1642 C.3       1 <0>         0.0189
      6 N2         -4.1839   -0.8213    0.1364 N.3       1 <0>        -0.4592
      7 C5         -5.4777   -1.3961    0.0779 C.3       1 <0>         0.0573
      8 C6         -5.5672   -2.8624    0.2390 C.3       1 <0>        -0.6940
      9 S1         -5.6022   -3.7959   -1.2715 S.o2      1 <0>         2.6022
     10 O1         -6.6813   -3.3885   -2.1039 O.2       1 <0>        -0.9370
     11 O2         -5.3494   -5.1747   -1.0283 O.2       1 <0>        -0.9436
     12 N3         -4.2030   -3.2130   -2.0330 N.pl3     1 <0>        -0.9817
     13 C7         -4.1317   -1.7611   -2.2595 C.3       1 <0>         0.1875
     14 C8         -3.5264   -0.9367   -1.1676 C.3       1 <0>         0.0472
     15 C9         -2.0553   -0.7526   -1.1708 C.2       1 <0>         0.2474
     16 C10        -1.3918   -0.8153   -2.3364 C.2       1 <0>        -0.2934
     17 C11        -2.1313   -1.1101   -3.5792 C.2       1 <0>        -0.0816
     18 C12        -3.3956   -1.5467   -3.5646 C.2       1 <0>        -0.1051
     19 C13        -1.4522   -0.9155   -4.8799 C.2       1 <0>         0.5615
     20 O3         -2.0431   -1.1524   -5.9155 O.2       1 <0>        -0.5421
     21 N4         -0.1788   -0.4757   -4.9161 N.am      1 <0>        -0.7161
     22 C14         0.4934   -0.2831   -6.2035 C.3       1 <0>         0.1252
     23 H1         -0.2282    0.0681   -6.9412 H         1 <0>         0.1065
     24 C15         1.6081    0.7532   -6.0469 C.3       1 <0>        -0.0822
     25 C16         1.0052    2.0920   -5.7077 C.ar      1 <0>        -0.0951
     26 C17         0.6454    2.9640   -6.7182 C.ar      1 <0>        -0.1133
     27 C18         0.0924    4.1921   -6.4070 C.ar      1 <0>        -0.1141
     28 C19        -0.1012    4.5481   -5.0854 C.ar      1 <0>        -0.1141
     29 C20         0.2578    3.6757   -4.0749 C.ar      1 <0>        -0.1134
     30 C21         0.8068    2.4459   -4.3862 C.ar      1 <0>        -0.1102
     31 C22         1.0935   -1.6112   -6.6693 C.3       1 <0>         0.0739
     32 H2          1.8150   -1.9624   -5.9316 H         1 <0>         0.1252
     33 C23        -0.0212   -2.6475   -6.8259 C.3       1 <0>        -0.0386
     34 N5          0.5665   -3.9526   -7.1565 N.4       1 <0>        -0.4757
     35 C24        -0.5038   -4.9476   -7.3069 C.3       1 <0>        -0.0834
     36 C25        -0.6866   -5.5855   -8.6855 C.3       1 <0>        -0.1531
     37 C26        -0.0888   -6.4020   -7.5379 C.3       1 <0>        -0.1540
     38 O4          1.7491   -1.4234   -7.9250 O.3       1 <0>        -0.5473
     39 C27        -3.1257   -4.1182   -2.4405 C.3       1 <0>         0.0983
     40 H3          1.0039    1.9031    0.0027 H         1 <0>         0.0683
     41 H4         -0.5459    1.8868   -0.8726 H         1 <0>         0.0597
     42 H5         -0.5289    1.8773    0.9072 H         1 <0>         0.0603
     43 H6          0.5123   -0.3556   -0.8948 H         1 <0>         0.0753
     44 H7          0.5293   -0.3651    0.8851 H         1 <0>         0.0796
     45 H8         -1.3394   -1.4270    1.8873 H         1 <0>         0.0779
     46 H9         -2.1343    0.1590    1.8371 H         1 <0>         0.0723
     47 H10        -3.1668   -2.5014    0.8834 H         1 <0>         0.0511
     48 H11        -3.8610   -1.4327    2.1207 H         1 <0>         0.1026
     49 H12        -6.1018   -0.9251    0.8693 H         1 <0>         0.1054
     50 H13        -5.9752   -1.1009   -0.8625 H         1 <0>         0.0937
     51 H14        -4.7483   -3.2326    0.8649 H         1 <0>         0.1484
     52 H15        -6.4903   -3.0948    0.8026 H         1 <0>         0.1533
     53 H16        -5.1578   -1.4040   -2.4134 H         1 <0>         0.1100
     54 H17        -3.7911    0.0555   -1.5568 H         1 <0>         0.0984
     55 H18        -0.3231   -0.6635   -2.3946 H         1 <0>         0.1210
     56 H19        -3.8997   -1.7474   -4.5013 H         1 <0>         0.1421
     57 H20         0.2927   -0.2867   -4.0898 H         1 <0>         0.4095
     58 H21         2.2812    0.4446   -5.2470 H         1 <0>         0.0826
     59 H22         2.1651    0.8316   -6.9806 H         1 <0>         0.1019
     60 H23         0.7966    2.6859   -7.7507 H         1 <0>         0.1208
     61 H24        -0.1881    4.8737   -7.1965 H         1 <0>         0.1247
     62 H25        -0.5326    5.5079   -4.8423 H         1 <0>         0.1243
     63 H26         0.1068    3.9540   -3.0424 H         1 <0>         0.1228
     64 H27         1.0838    1.7628   -3.5969 H         1 <0>         0.1151
     65 H28        -0.5782   -2.7259   -5.8922 H         1 <0>         0.1408
     66 H29        -0.6943   -2.3390   -7.6257 H         1 <0>         0.1437
     67 H30         1.0821   -3.8800   -8.0208 H         1 <0>         0.4272
     68 H31        -1.3995   -4.7681   -6.7122 H         1 <0>         0.1762
     69 H32        -1.7028   -5.8258   -8.9981 H         1 <0>         0.1336
     70 H33        -0.0128   -5.2670   -9.4808 H         1 <0>         0.1210
     71 H34         0.9782   -6.6206   -7.5783 H         1 <0>         0.1208
     72 H35        -0.7118   -7.1794   -7.0955 H         1 <0>         0.1341
     73 H36         1.1660   -1.1108   -8.6303 H         1 <0>         0.3927
     74 H37        -3.3913   -5.1416   -2.1754 H         1 <0>         0.0872
     75 H38        -2.9805   -4.0481   -3.5185 H         1 <0>         0.0565
     76 H39        -2.2038   -3.8384   -1.9307 H         1 <0>         0.0574
     77 H40         1.1896   -4.2382   -6.4161 H         1 <0>         0.4253
@<TRIPOS>BOND
     1    1    2 1
     2    1   40 1
     3    1   41 1
     4    1   42 1
     5    2    3 1
     6    2   43 1
     7    2   44 1
     8    3   15 1
     9    3    4 1
    10    4    5 1
    11    4   45 1
    12    4   46 1
    13    5    6 1
    14    5   47 1
    15    5   48 1
    16    6   14 1
    17    6    7 1
    18    7    8 1
    19    7   49 1
    20    7   50 1
    21    8    9 1
    22    8   51 1
    23    8   52 1
    24    9   10 2
    25    9   11 2
    26    9   12 1
    27   12   13 1
    28   12   39 1
    29   13   18 1
    30   13   14 1
    31   13   53 1
    32   14   15 1
    33   14   54 1
    34   15   16 2
    35   16   17 1
    36   16   55 1
    37   17   18 2
    38   17   19 1
    39   18   56 1
    40   19   20 2
    41   19   21 am
    42   21   22 1
    43   21   57 1
    44   22   23 1
    45   22   24 1
    46   22   31 1
    47   24   25 1
    48   24   58 1
    49   24   59 1
    50   25   30 ar
    51   25   26 ar
    52   26   27 ar
    53   26   60 1
    54   27   28 ar
    55   27   61 1
    56   28   29 ar
    57   28   62 1
    58   29   30 ar
    59   29   63 1
    60   30   64 1
    61   31   32 1
    62   31   33 1
    63   31   38 1
    64   33   34 1
    65   33   65 1
    66   33   66 1
    67   34   35 1
    68   34   67 1
    69   34   77 1
    70   35   37 1
    71   35   36 1
    72   35   68 1
    73   36   37 1
    74   36   69 1
    75   36   70 1
    76   37   71 1
    77   37   72 1
    78   38   73 1
    79   39   74 1
    80   39   75 1
    81   39   76 1
@<TRIPOS>MOLECULE
CHEMBL561095__3
   77    81     0     0     0
SMALL
USER_CHARGES

@<TRIPOS>ATOM
      1 C1         -0.0187    1.5258    0.0104 C.3       1 <0>        -0.1751
      2 C2          0.0021   -0.0041    0.0020 C.3       1 <0>         0.1484
      3 N1         -1.3723   -0.5112    0.0124 N.pl3     1 <0>        -0.6773
      4 C3         -2.1493   -0.8019    1.2390 C.3       1 <0>         0.1358
      5 C4         -2.6027   -2.2447    1.1433 C.3       1 <0>         0.0079
      6 N2         -3.3624   -2.5951   -0.0702 N.3       1 <0>        -0.4710
      7 C5         -3.4045   -4.0612   -0.0318 C.3       1 <0>         0.0217
      8 C6         -4.0883   -4.7799   -1.1556 C.3       1 <0>        -0.6192
      9 S1         -2.9956   -4.8288   -2.5929 S.o2      1 <0>         2.5815
     10 O1         -3.3986   -5.8556   -3.4888 O.2       1 <0>        -0.9469
     11 O2         -1.6388   -4.7013   -2.1903 O.2       1 <0>        -0.9474
     12 N3         -3.3592   -3.3875   -3.3830 N.pl3     1 <0>        -0.9995
     13 C7         -3.6996   -2.2725   -2.4239 C.3       1 <0>         0.1720
     14 C8         -2.6264   -2.1834   -1.3326 C.3       1 <0>         0.0341
     15 C9         -2.1291   -0.7801   -1.1394 C.2       1 <0>         0.1904
     16 C10        -2.3501    0.2514   -1.9440 C.2       1 <0>        -0.1764
     17 C11        -3.2302    0.1070   -3.1138 C.2       1 <0>        -0.1222
     18 C12        -3.8488   -1.0707   -3.2914 C.2       1 <0>        -0.0606
     19 C13        -3.4156    1.2217   -4.0677 C.2       1 <0>         0.5700
     20 O3         -4.1471    1.0840   -5.0288 O.2       1 <0>        -0.5400
     21 N4         -2.7737    2.3904   -3.8715 N.am      1 <0>        -0.7162
     22 C14        -2.9573    3.4947   -4.8165 C.3       1 <0>         0.1261
     23 H1         -3.9822    3.4888   -5.1875 H         1 <0>         0.1078
     24 C15        -2.6786    4.8226   -4.1095 C.3       1 <0>        -0.0826
     25 C16        -3.7089    5.0442   -3.0323 C.ar      1 <0>        -0.0957
     26 C17        -4.8854    5.7073   -3.3270 C.ar      1 <0>        -0.1133
     27 C18        -5.8305    5.9106   -2.3389 C.ar      1 <0>        -0.1140
     28 C19        -5.5993    5.4502   -1.0561 C.ar      1 <0>        -0.1136
     29 C20        -4.4232    4.7863   -0.7616 C.ar      1 <0>        -0.1129
     30 C21        -3.4799    4.5793   -1.7507 C.ar      1 <0>        -0.1116
     31 C22        -1.9893    3.3285   -5.9896 C.3       1 <0>         0.0734
     32 H2         -0.9644    3.3344   -5.6186 H         1 <0>         0.1258
     33 C23        -2.2681    2.0005   -6.6965 C.3       1 <0>        -0.0388
     34 N5         -1.2637    1.7846   -7.7466 N.4       1 <0>        -0.4759
     35 C24        -1.5314    0.5096   -8.4254 C.3       1 <0>        -0.0840
     36 C25        -1.8965    0.5628   -9.9103 C.3       1 <0>        -0.1525
     37 C26        -0.5233    0.0445   -9.4782 C.3       1 <0>        -0.1541
     38 O4         -2.1685    4.4056   -6.9113 O.3       1 <0>        -0.5463
     39 C27        -3.3463   -3.2322   -4.8397 C.3       1 <0>         0.1125
     40 H3          1.0039    1.9031    0.0027 H         1 <0>         0.0641
     41 H4         -0.5459    1.8868   -0.8726 H         1 <0>         0.0504
     42 H5         -0.5289    1.8773    0.9072 H         1 <0>         0.0602
     43 H6          0.5123   -0.3556   -0.8948 H         1 <0>         0.0670
     44 H7          0.5293   -0.3651    0.8851 H         1 <0>         0.0747
     45 H8         -1.5199   -0.6672    2.1187 H         1 <0>         0.0897
     46 H9         -3.0155   -0.1426    1.2956 H         1 <0>         0.0695
     47 H10        -1.7208   -2.8835    1.1903 H         1 <0>         0.0512
     48 H11        -3.2246   -2.4654    2.0109 H         1 <0>         0.0944
     49 H12        -2.3767   -4.4211    0.0148 H         1 <0>         0.0640
     50 H13        -3.8954   -4.3544    0.8962 H         1 <0>         0.1058
     51 H14        -4.3257   -5.7974   -0.8450 H         1 <0>         0.1562
     52 H15        -5.0077   -4.2556   -1.4160 H         1 <0>         0.1518
     53 H16        -4.6577   -2.4911   -1.9522 H         1 <0>         0.1234
     54 H17        -1.8054   -2.8689   -1.5426 H         1 <0>         0.1290
     55 H18        -1.8813    1.2025   -1.7388 H         1 <0>         0.1278
     56 H19        -4.5220   -1.1499   -4.1322 H         1 <0>         0.1364
     57 H20        -2.1900    2.5004   -3.1046 H         1 <0>         0.4094
     58 H21        -1.6852    4.7944   -3.6618 H         1 <0>         0.0831
     59 H22        -2.7282    5.6367   -4.8327 H         1 <0>         0.1030
     60 H23        -5.0661    6.0670   -4.3292 H         1 <0>         0.1211
     61 H24        -6.7494    6.4293   -2.5690 H         1 <0>         0.1250
     62 H25        -6.3374    5.6096   -0.2840 H         1 <0>         0.1248
     63 H26        -4.2424    4.4269    0.2407 H         1 <0>         0.1237
     64 H27        -2.5627    4.0573   -1.5215 H         1 <0>         0.1146
     65 H28        -2.2185    1.1865   -5.9734 H         1 <0>         0.1397
     66 H29        -3.2615    2.0288   -7.1442 H         1 <0>         0.1444
     67 H30        -1.3097    2.5381   -8.4160 H         1 <0>         0.4276
     68 H31        -2.0117   -0.2558   -7.8158 H         1 <0>         0.1759
     69 H32        -2.6173   -0.1676  -10.2778 H         1 <0>         0.1338
     70 H33        -1.9381    1.5439  -10.3835 H         1 <0>         0.1211
     71 H34         0.3385    0.6846   -9.6672 H         1 <0>         0.1210
     72 H35        -0.3407   -1.0268   -9.5615 H         1 <0>         0.1342
     73 H36        -3.0597    4.4616   -7.2825 H         1 <0>         0.3928
     74 H37        -3.0701   -4.1791   -5.3036 H         1 <0>         0.0832
     75 H38        -4.3376   -2.9353   -5.1823 H         1 <0>         0.0652
     76 H39        -2.6216   -2.4667   -5.1171 H         1 <0>         0.0550
     77 H40        -0.3441    1.7584   -7.3322 H         1 <0>         0.4257
@<TRIPOS>BOND
     1    1    2 1
     2    1   40 1
     3    1   41 1
     4    1   42 1
     5    2    3 1
     6    2   43 1
     7    2   44 1
     8    3   15 1
     9    3    4 1
    10    4    5 1
    11    4   45 1
    12    4   46 1
    13    5    6 1
    14    5   47 1
    15    5   48 1
    16    6   14 1
    17    6    7 1
    18    7    8 1
    19    7   49 1
    20    7   50 1
    21    8    9 1
    22    8   51 1
    23    8   52 1
    24    9   10 2
    25    9   11 2
    26    9   12 1
    27   12   13 1
    28   12   39 1
    29   13   18 1
    30   13   14 1
    31   13   53 1
    32   14   15 1
    33   14   54 1
    34   15   16 2
    35   16   17 1
    36   16   55 1
    37   17   18 2
    38   17   19 1
    39   18   56 1
    40   19   20 2
    41   19   21 am
    42   21   22 1
    43   21   57 1
    44   22   23 1
    45   22   24 1
    46   22   31 1
    47   24   25 1
    48   24   58 1
    49   24   59 1
    50   25   30 ar
    51   25   26 ar
    52   26   27 ar
    53   26   60 1
    54   27   28 ar
    55   27   61 1
    56   28   29 ar
    57   28   62 1
    58   29   30 ar
    59   29   63 1
    60   30   64 1
    61   31   32 1
    62   31   33 1
    63   31   38 1
    64   33   34 1
    65   33   65 1
    66   33   66 1
    67   34   35 1
    68   34   67 1
    69   34   77 1
    70   35   37 1
    71   35   36 1
    72   35   68 1
    73   36   37 1
    74   36   69 1
    75   36   70 1
    76   37   71 1
    77   37   72 1
    78   38   73 1
    79   39   74 1
    80   39   75 1
    81   39   76 1
@<TRIPOS>MOLECULE
CHEMBL256434
   74    76     0     0     0
SMALL
USER_CHARGES

@<TRIPOS>ATOM
      1 C1         -2.1213   -6.7075    0.8161 C.3       1 <0>        -0.1513
      2 C2         -1.1519   -5.6762    1.3972 C.3       1 <0>        -0.1382
      3 C3          0.2147   -5.8259    0.7258 C.3       1 <0>         0.1117
      4 N1          1.1429   -4.8384    1.2822 N.am      1 <0>        -0.6033
      5 C4          1.8781   -5.1366    2.5137 C.3       1 <0>         0.0941
      6 C5          3.0395   -6.0814    2.1983 C.3       1 <0>        -0.1501
      7 C6          3.9052   -6.2601    3.4471 C.3       1 <0>        -0.1552
      8 C7          1.3204   -3.6556    0.6610 C.2       1 <0>         0.5574
      9 O1          0.6742   -3.3882   -0.3332 O.2       1 <0>        -0.5259
     10 C8          2.3013   -2.6832    1.1889 C.ar      1 <0>        -0.1265
     11 C9          3.5467   -3.1223    1.6446 C.ar      1 <0>        -0.0709
     12 C10         4.4636   -2.2157    2.1378 C.ar      1 <0>        -0.0904
     13 C11         4.1569   -0.8700    2.1843 C.ar      1 <0>        -0.0664
     14 C12         2.9153   -0.4176    1.7324 C.ar      1 <0>        -0.1506
     15 C13         1.9877   -1.3265    1.2277 C.ar      1 <0>        -0.0111
     16 C14         2.5882    1.0235    1.7839 C.2       1 <0>         0.5686
     17 O2          1.5071    1.4158    1.3903 O.2       1 <0>        -0.5236
     18 N2          3.4887    1.9021    2.2673 N.am      1 <0>        -0.7260
     19 C15         3.1254    3.3128    2.4223 C.3       1 <0>         0.1205
     20 H1          2.0441    3.4000    2.5287 H         1 <0>         0.1214
     21 C16         3.8079    3.8813    3.6680 C.3       1 <0>        -0.0942
     22 C17         3.2674    3.1934    4.8951 C.ar      1 <0>        -0.0339
     23 C18         2.1602    3.7070    5.5434 C.ar      1 <0>        -0.1593
     24 C19         1.6630    3.0760    6.6712 C.ar      1 <0>         0.1425
     25 C20         2.2750    1.9301    7.1490 C.ar      1 <0>        -0.1893
     26 C21         3.3836    1.4163    6.4986 C.ar      1 <0>         0.1405
     27 C22         3.8760    2.0461    5.3679 C.ar      1 <0>        -0.1595
     28 F1          3.9820    0.2979    6.9638 F         1 <0>        -0.1248
     29 F2          0.5811    3.5788    7.3053 F         1 <0>        -0.1236
     30 C23         3.5813    4.0953    1.1891 C.3       1 <0>         0.0804
     31 H2          4.6432    3.9185    1.0187 H         1 <0>         0.0854
     32 C24         2.7847    3.6317   -0.0322 C.3       1 <0>         0.0326
     33 H3          2.8008    2.5442   -0.1044 H         1 <0>         0.1506
     34 C25         1.3256    4.1454    0.0489 C.3       1 <0>        -0.1325
     35 C26         0.9100    4.1459   -1.4459 C.3       1 <0>        -0.1425
     36 C27         2.2103    4.5571   -2.1680 C.3       1 <0>        -0.0071
     37 N3          3.3329    4.2374   -1.2645 N.4       1 <0>        -0.5127
     38 O3          3.3587    5.4908    1.4013 O.3       1 <0>        -0.5577
     39 C28         5.8050   -2.6967    2.6281 C.3       1 <0>        -0.1217
     40 H4         -2.2239   -6.5455   -0.2569 H         1 <0>         0.0579
     41 H5         -1.7357   -7.7108    0.9969 H         1 <0>         0.0571
     42 H6         -3.0949   -6.6008    1.2944 H         1 <0>         0.0599
     43 H7         -1.5376   -4.6728    1.2164 H         1 <0>         0.0652
     44 H8         -1.0493   -5.8381    2.4702 H         1 <0>         0.0632
     45 H9          0.6004   -6.8292    0.9066 H         1 <0>         0.0808
     46 H10         0.1121   -5.6639   -0.3472 H         1 <0>         0.0892
     47 H11         2.2675   -4.2110    2.9376 H         1 <0>         0.0883
     48 H12         1.2083   -5.6111    3.2309 H         1 <0>         0.0839
     49 H13         2.6463   -7.0492    1.8872 H         1 <0>         0.0751
     50 H14         3.6433   -5.6593    1.3950 H         1 <0>         0.0696
     51 H15         3.3013   -6.6822    4.2504 H         1 <0>         0.0621
     52 H16         4.7326   -6.9331    3.2224 H         1 <0>         0.0641
     53 H17         4.2983   -5.2922    3.7582 H         1 <0>         0.0565
     54 H18         3.7927   -4.1734    1.6112 H         1 <0>         0.1525
     55 H19         4.8787   -0.1659    2.5714 H         1 <0>         0.1278
     56 H20         1.0279   -0.9813    0.8725 H         1 <0>         0.1450
     57 H21         4.3773    1.6003    2.5126 H         1 <0>         0.4065
     58 H22         4.8830    3.7141    3.6016 H         1 <0>         0.0944
     59 H23         3.6100    4.9512    3.7344 H         1 <0>         0.1041
     60 H24         1.6828    4.6011    5.1704 H         1 <0>         0.1448
     61 H25         1.8881    1.4374    8.0288 H         1 <0>         0.1532
     62 H26         4.7383    1.6429    4.8577 H         1 <0>         0.1384
     63 H27         0.7029    3.4627    0.6270 H         1 <0>         0.1272
     64 H28         1.2886    5.1522    0.4647 H         1 <0>         0.1086
     65 H29         0.5938    3.1506   -1.7583 H         1 <0>         0.0993
     66 H30         0.1214    4.8763   -1.6264 H         1 <0>         0.1128
     67 H31         2.3123    3.9954   -3.0966 H         1 <0>         0.1324
     68 H32         2.1952    5.6264   -2.3787 H         1 <0>         0.1333
     69 H33         3.8337    5.0824   -1.0337 H         1 <0>         0.4311
     70 H34         3.8339    5.8538    2.1612 H         1 <0>         0.4036
     71 H35         6.5167   -2.6919    1.8025 H         1 <0>         0.0783
     72 H36         6.1611   -2.0362    3.4186 H         1 <0>         0.0732
     73 H37         5.7074   -3.7100    3.0177 H         1 <0>         0.0757
     74 H38         3.9582    3.5856   -1.7141 H         1 <0>         0.4275
@<TRIPOS>BOND
     1    1    2 1
     2    1   40 1
     3    1   41 1
     4    1   42 1
     5    2    3 1
     6    2   43 1
     7    2   44 1
     8    3    4 1
     9    3   45 1
    10    3   46 1
    11    4    5 1
    12    4    8 am
    13    5    6 1
    14    5   47 1
    15    5   48 1
    16    6    7 1
    17    6   49 1
    18    6   50 1
    19    7   51 1
    20    7   52 1
    21    7   53 1
    22    8    9 2
    23    8   10 1
    24   10   15 ar
    25   10   11 ar
    26   11   12 ar
    27   11   54 1
    28   12   13 ar
    29   12   39 1
    30   13   14 ar
    31   13   55 1
    32   14   15 ar
    33   14   16 1
    34   15   56 1
    35   16   17 2
    36   16   18 am
    37   18   19 1
    38   18   57 1
    39   19   20 1
    40   19   21 1
    41   19   30 1
    42   21   22 1
    43   21   58 1
    44   21   59 1
    45   22   27 ar
    46   22   23 ar
    47   23   24 ar
    48   23   60 1
    49   24   25 ar
    50   24   29 1
    51   25   26 ar
    52   25   61 1
    53   26   27 ar
    54   26   28 1
    55   27   62 1
    56   30   31 1
    57   30   32 1
    58   30   38 1
    59   32   33 1
    60   32   37 1
    61   32   34 1
    62   34   35 1
    63   34   63 1
    64   34   64 1
    65   35   36 1
    66   35   65 1
    67   35   66 1
    68   36   37 1
    69   36   67 1
    70   36   68 1
    71   37   69 1
    72   37   74 1
    73   38   70 1
    74   39   71 1
    75   39   72 1
    76   39   73 1
@<TRIPOS>MOLECULE
CHEMBL561096
   74    77     0     0     0
SMALL
USER_CHARGES

@<TRIPOS>ATOM
      1 C1         -0.1778    1.5239    0.1224 C.3       1 <0>        -0.1698
      2 C2         -0.1984   -0.0058    0.1448 C.3       1 <0>         0.1202
      3 N1          0.7036   -0.4910    1.1923 N.pl3     1 <0>        -0.7397
      4 C3          0.8516   -1.8504    1.4027 C.2       1 <0>         0.2194
      5 C4          0.2539   -2.6845    0.5607 C.2       1 <0>        -0.2734
      6 C5          0.3647   -4.1393    0.7678 C.2       1 <0>        -0.0846
      7 C6          0.9397   -4.6078    1.8787 C.2       1 <0>        -0.1111
      8 C7          1.4711   -3.7231    2.9690 C.3       1 <0>         0.2104
      9 C8          1.6842   -2.3018    2.5671 C.3       1 <0>        -0.1035
     10 C9          1.4758   -1.3333    3.7112 C.3       1 <0>        -0.1396
     11 C10         2.7130   -1.0322    4.4996 C.3       1 <0>        -0.0989
     12 C11         3.1681   -2.2497    5.2779 C.3       1 <0>        -0.6544
     13 S1          3.8834   -3.5294    4.2626 S.o2      1 <0>         2.6365
     14 O1          4.6587   -2.9324    3.2322 O.2       1 <0>        -0.9606
     15 O2          4.4644   -4.5213    5.0980 O.2       1 <0>        -0.9606
     16 N2          2.7117   -4.3388    3.4623 N.pl3     1 <0>        -1.0068
     17 C12         2.9200   -5.7664    3.2074 C.3       1 <0>         0.0797
     18 C13        -0.1577   -5.0764   -0.2500 C.2       1 <0>         0.5671
     19 O3         -0.0649   -6.2759   -0.0764 O.2       1 <0>        -0.5106
     20 N3         -0.7369   -4.6004   -1.3700 N.am      1 <0>        -0.7220
     21 C14        -1.2545   -5.5287   -2.3783 C.3       1 <0>         0.1275
     22 H1         -0.6130   -6.4087   -2.4253 H         1 <0>         0.1086
     23 C15        -2.6750   -5.9527   -1.9997 C.3       1 <0>        -0.1016
     24 C16        -2.6389   -6.7393   -0.7148 C.ar      1 <0>        -0.0779
     25 C17        -2.4806   -8.1121   -0.7490 C.ar      1 <0>        -0.1067
     26 C18        -2.4475   -8.8336    0.4296 C.ar      1 <0>        -0.1113
     27 C19        -2.5722   -8.1822    1.6425 C.ar      1 <0>        -0.1107
     28 C20        -2.7295   -6.8093    1.6767 C.ar      1 <0>        -0.1093
     29 C21        -2.7584   -6.0873    0.4983 C.ar      1 <0>        -0.1038
     30 C22        -1.2749   -4.8390   -3.7438 C.3       1 <0>         0.0747
     31 H2         -0.2797   -4.4585   -3.9736 H         1 <0>         0.1327
     32 C23        -1.6967   -5.8447   -4.8169 C.3       1 <0>        -0.0411
     33 N4         -1.6012   -5.2166   -6.1414 N.4       1 <0>        -0.4745
     34 C24        -2.0061   -6.1822   -7.1717 C.3       1 <0>        -0.0863
     35 C25        -0.9494   -6.6123   -8.1912 C.3       1 <0>        -0.1539
     36 C26        -2.0878   -5.6823   -8.6154 C.3       1 <0>        -0.1532
     37 O4         -2.2049   -3.7544   -3.7158 O.3       1 <0>        -0.5500
     38 H3          0.8353    1.8707   -0.0812 H         1 <0>         0.0634
     39 H4         -0.8489    1.8849   -0.6570 H         1 <0>         0.0753
     40 H5         -0.5052    1.9059    1.0894 H         1 <0>         0.0638
     41 H6         -1.2115   -0.3526    0.3484 H         1 <0>         0.0640
     42 H7          0.1289   -0.3878   -0.8221 H         1 <0>         0.0602
     43 H8          1.1970    0.1408    1.7384 H         1 <0>         0.4007
     44 H9         -0.3125   -2.2979   -0.2738 H         1 <0>         0.1198
     45 H10         1.0264   -5.6776    1.9989 H         1 <0>         0.1407
     46 H11         0.7490   -3.7286    3.7855 H         1 <0>         0.0888
     47 H12         2.7277   -2.2029    2.2680 H         1 <0>         0.1139
     48 H13         1.0873   -0.3986    3.3068 H         1 <0>         0.0898
     49 H14         0.7287   -1.7510    4.3862 H         1 <0>         0.0815
     50 H15         3.5064   -0.7255    3.8180 H         1 <0>         0.0877
     51 H16         2.5054   -0.2192    5.1954 H         1 <0>         0.0964
     52 H17         3.9082   -1.9353    6.0138 H         1 <0>         0.1480
     53 H18         2.3104   -2.6646    5.8073 H         1 <0>         0.1375
     54 H19         3.0136   -5.9340    2.1344 H         1 <0>         0.0677
     55 H20         3.8308   -6.0957    3.7074 H         1 <0>         0.0931
     56 H21         2.0704   -6.3316    3.5906 H         1 <0>         0.0718
     57 H22        -0.8110   -3.6432   -1.5086 H         1 <0>         0.4070
     58 H23        -3.2952   -5.0664   -1.8659 H         1 <0>         0.0813
     59 H24        -3.0930   -6.5721   -2.7933 H         1 <0>         0.0777
     60 H25        -2.3832   -8.6210   -1.6966 H         1 <0>         0.1110
     61 H26        -2.3246   -9.9062    0.4029 H         1 <0>         0.1191
     62 H27        -2.5470   -8.7460    2.5633 H         1 <0>         0.1198
     63 H28        -2.8273   -6.3004    2.6243 H         1 <0>         0.1176
     64 H29        -2.8776   -5.0142    0.5252 H         1 <0>         0.1110
     65 H30        -1.0398   -6.7137   -4.7787 H         1 <0>         0.1474
     66 H31        -2.7249   -6.1584   -4.6369 H         1 <0>         0.1412
     67 H32        -2.2092   -4.4122   -6.1768 H         1 <0>         0.4329
     68 H33        -2.7344   -6.9291   -6.8557 H         1 <0>         0.1780
     69 H34         0.0463   -6.1787   -8.0974 H         1 <0>         0.1218
     70 H35        -0.9823   -7.6424   -8.5460 H         1 <0>         0.1345
     71 H36        -2.8696   -6.1005   -9.2494 H         1 <0>         0.1348
     72 H37        -1.8411   -4.6369   -8.8007 H         1 <0>         0.1219
     73 H38        -3.1131   -4.0200   -3.5167 H         1 <0>         0.3915
     74 H39        -0.6493   -4.9262   -6.3081 H         1 <0>         0.4266
@<TRIPOS>BOND
     1    1    2 1
     2    1   38 1
     3    1   39 1
     4    1   40 1
     5    2    3 1
     6    2   41 1
     7    2   42 1
     8    3    4 1
     9    3   43 1
    10    4    9 1
    11    4    5 2
    12    5    6 1
    13    5   44 1
    14    6    7 2
    15    6   18 1
    16    7    8 1
    17    7   45 1
    18    8   16 1
    19    8    9 1
    20    8   46 1
    21    9   10 1
    22    9   47 1
    23   10   11 1
    24   10   48 1
    25   10   49 1
    26   11   12 1
    27   11   50 1
    28   11   51 1
    29   12   13 1
    30   12   52 1
    31   12   53 1
    32   13   14 2
    33   13   15 2
    34   13   16 1
    35   16   17 1
    36   17   54 1
    37   17   55 1
    38   17   56 1
    39   18   19 2
    40   18   20 am
    41   20   21 1
    42   20   57 1
    43   21   22 1
    44   21   23 1
    45   21   30 1
    46   23   24 1
    47   23   58 1
    48   23   59 1
    49   24   29 ar
    50   24   25 ar
    51   25   26 ar
    52   25   60 1
    53   26   27 ar
    54   26   61 1
    55   27   28 ar
    56   27   62 1
    57   28   29 ar
    58   28   63 1
    59   29   64 1
    60   30   31 1
    61   30   32 1
    62   30   37 1
    63   32   33 1
    64   32   65 1
    65   32   66 1
    66   33   34 1
    67   33   67 1
    68   33   74 1
    69   34   36 1
    70   34   35 1
    71   34   68 1
    72   35   36 1
    73   35   69 1
    74   35   70 1
    75   36   71 1
    76   36   72 1
    77   37   73 1
@<TRIPOS>MOLECULE
CHEMBL561096__1
   74    77     0     0     0
SMALL
USER_CHARGES

@<TRIPOS>ATOM
      1 C1         -0.0187    1.5258    0.0104 C.3       1 <0>        -0.1698
      2 C2          0.0021   -0.0041    0.0020 C.3       1 <0>         0.1210
      3 N1          0.7106   -0.4894    1.1889 N.pl3     1 <0>        -0.7301
      4 C3          0.8576   -1.8489    1.3991 C.2       1 <0>         0.2041
      5 C4          0.3639   -2.7330    0.5264 C.2       1 <0>        -0.2734
      6 C5          0.4800   -4.1873    0.7463 C.2       1 <0>        -0.1045
      7 C6          0.7548   -4.6406    1.9962 C.2       1 <0>        -0.0948
      8 C7          0.9051   -3.6206    3.0681 C.3       1 <0>         0.1517
      9 C8          1.5928   -2.3738    2.6301 C.3       1 <0>        -0.0567
     10 C9          3.0303   -2.6255    2.1923 C.3       1 <0>        -0.1289
     11 C10         4.0107   -2.7269    3.3232 C.3       1 <0>        -0.0984
     12 C11         3.8181   -3.9710    4.1488 C.3       1 <0>        -0.6482
     13 S1          2.4358   -3.8975    5.2706 S.o2      1 <0>         2.6188
     14 O1          2.4694   -5.0220    6.1387 O.2       1 <0>        -0.9589
     15 O2          2.3316   -2.5868    5.8095 O.2       1 <0>        -0.9531
     16 N2          1.0281   -4.0908    4.4228 N.pl3     1 <0>        -0.9745
     17 C12        -0.1134   -4.7559    5.0559 C.3       1 <0>         0.0998
     18 C13         0.2995   -5.1346   -0.3748 C.2       1 <0>         0.5690
     19 O3          0.3975   -6.3307   -0.1817 O.2       1 <0>        -0.5124
     20 N3          0.0265   -4.6717   -1.6108 N.am      1 <0>        -0.7227
     21 C14        -0.1522   -5.6101   -2.7215 C.3       1 <0>         0.1278
     22 H1          0.5181   -6.4597   -2.5909 H         1 <0>         0.1080
     23 C15        -1.6007   -6.1023   -2.7453 C.3       1 <0>        -0.1017
     24 C16        -1.8800   -6.9020   -1.4988 C.ar      1 <0>        -0.0779
     25 C17        -1.6544   -8.2658   -1.4876 C.ar      1 <0>        -0.1070
     26 C18        -1.9106   -8.9993   -0.3442 C.ar      1 <0>        -0.1115
     27 C19        -2.3919   -8.3690    0.7880 C.ar      1 <0>        -0.1104
     28 C20        -2.6166   -7.0051    0.7770 C.ar      1 <0>        -0.1088
     29 C21        -2.3564   -6.2709   -0.3650 C.ar      1 <0>        -0.1034
     30 C22         0.1687   -4.9055   -4.0412 C.3       1 <0>         0.0750
     31 H2          1.1699   -4.4777   -3.9905 H         1 <0>         0.1321
     32 C23         0.1034   -5.9162   -5.1880 C.3       1 <0>        -0.0413
     33 N4          0.5274   -5.2683   -6.4364 N.4       1 <0>        -0.4744
     34 C24         0.4647   -6.2387   -7.5375 C.3       1 <0>        -0.0863
     35 C25         1.7784   -6.6083   -8.2291 C.3       1 <0>        -0.1539
     36 C26         0.7569   -5.7255   -8.9489 C.3       1 <0>        -0.1531
     37 O4         -0.7832   -3.8644   -4.2690 O.3       1 <0>        -0.5501
     38 H3          1.0039    1.9031    0.0027 H         1 <0>         0.0636
     39 H4         -0.5459    1.8868   -0.8726 H         1 <0>         0.0755
     40 H5         -0.5289    1.8773    0.9072 H         1 <0>         0.0651
     41 H6         -1.0205   -0.3814    0.0098 H         1 <0>         0.0633
     42 H7          0.5123   -0.3556   -0.8948 H         1 <0>         0.0606
     43 H8          1.0768    0.1425    1.8273 H         1 <0>         0.4042
     44 H9         -0.1330   -2.3735   -0.3625 H         1 <0>         0.1135
     45 H10         0.8595   -5.6955    2.2031 H         1 <0>         0.1387
     46 H11        -0.1200   -3.2510    3.0941 H         1 <0>         0.0813
     47 H12         1.5614   -1.6318    3.4279 H         1 <0>         0.1135
     48 H13         3.0613   -3.5545    1.6229 H         1 <0>         0.0784
     49 H14         3.3403   -1.8114    1.5372 H         1 <0>         0.0841
     50 H15         5.0210   -2.7287    2.9141 H         1 <0>         0.0920
     51 H16         3.8958   -1.8554    3.9678 H         1 <0>         0.0861
     52 H17         3.6727   -4.8151    3.4747 H         1 <0>         0.1369
     53 H18         4.7250   -4.1465    4.7276 H         1 <0>         0.1475
     54 H19        -0.0595   -5.8281    4.8674 H         1 <0>         0.0643
     55 H20        -0.0896   -4.5743    6.1304 H         1 <0>         0.0782
     56 H21        -1.0404   -4.3602    4.6410 H         1 <0>         0.0781
     57 H22        -0.0516   -3.7172   -1.7650 H         1 <0>         0.4069
     58 H23        -2.2746   -5.2466   -2.7865 H         1 <0>         0.0810
     59 H24        -1.7567   -6.7303   -3.6224 H         1 <0>         0.0774
     60 H25        -1.2783   -8.7582   -2.3721 H         1 <0>         0.1108
     61 H26        -1.7350  -10.0649   -0.3357 H         1 <0>         0.1190
     62 H27        -2.5927   -8.9422    1.6810 H         1 <0>         0.1200
     63 H28        -2.9930   -6.5126    1.6615 H         1 <0>         0.1177
     64 H29        -2.5284   -5.2047   -0.3724 H         1 <0>         0.1106
     65 H30         0.7648   -6.7550   -4.9711 H         1 <0>         0.1472
     66 H31        -0.9191   -6.2781   -5.2955 H         1 <0>         0.1412
     67 H32        -0.0849   -4.4918   -6.6371 H         1 <0>         0.4331
     68 H33        -0.2865   -7.0215   -7.4320 H         1 <0>         0.1780
     69 H34         2.6893   -6.1314   -7.8671 H         1 <0>         0.1217
     70 H35         1.8918   -7.6344   -8.5787 H         1 <0>         0.1345
     71 H36         0.1982   -6.1709   -9.7721 H         1 <0>         0.1349
     72 H37         0.9957   -4.6679   -9.0604 H         1 <0>         0.1219
     73 H38        -1.6979   -4.1732   -4.3255 H         1 <0>         0.3918
     74 H39         1.4739   -4.9333   -6.3368 H         1 <0>         0.4264
@<TRIPOS>BOND
     1    1    2 1
     2    1   38 1
     3    1   39 1
     4    1   40 1
     5    2    3 1
     6    2   41 1
     7    2   42 1
     8    3    4 1
     9    3   43 1
    10    4    9 1
    11    4    5 2
    12    5    6 1
    13    5   44 1
    14    6    7 2
    15    6   18 1
    16    7    8 1
    17    7   45 1
    18    8   16 1
    19    8    9 1
    20    8   46 1
    21    9   10 1
    22    9   47 1
    23   10   11 1
    24   10   48 1
    25   10   49 1
    26   11   12 1
    27   11   50 1
    28   11   51 1
    29   12   13 1
    30   12   52 1
    31   12   53 1
    32   13   14 2
    33   13   15 2
    34   13   16 1
    35   16   17 1
    36   17   54 1
    37   17   55 1
    38   17   56 1
    39   18   19 2
    40   18   20 am
    41   20   21 1
    42   20   57 1
    43   21   22 1
    44   21   23 1
    45   21   30 1
    46   23   24 1
    47   23   58 1
    48   23   59 1
    49   24   29 ar
    50   24   25 ar
    51   25   26 ar
    52   25   60 1
    53   26   27 ar
    54   26   61 1
    55   27   28 ar
    56   27   62 1
    57   28   29 ar
    58   28   63 1
    59   29   64 1
    60   30   31 1
    61   30   32 1
    62   30   37 1
    63   32   33 1
    64   32   65 1
    65   32   66 1
    66   33   34 1
    67   33   67 1
    68   33   74 1
    69   34   36 1
    70   34   35 1
    71   34   68 1
    72   35   36 1
    73   35   69 1
    74   35   70 1
    75   36   71 1
    76   36   72 1
    77   37   73 1
@<TRIPOS>MOLECULE
CHEMBL561096__2
   74    77     0     0     0
SMALL
USER_CHARGES

@<TRIPOS>ATOM
      1 C1         -0.0187    1.5258    0.0104 C.3       1 <0>        -0.1698
      2 C2          0.0021   -0.0041    0.0020 C.3       1 <0>         0.1209
      3 N1          0.7106   -0.4894    1.1889 N.pl3     1 <0>        -0.7297
      4 C3          0.8576   -1.8489    1.3991 C.2       1 <0>         0.2057
      5 C4          0.3638   -2.7327    0.5263 C.2       1 <0>        -0.2739
      6 C5          0.5356   -4.1862    0.7123 C.2       1 <0>        -0.1033
      7 C6          1.4994   -4.6281    1.5604 C.2       1 <0>        -0.0954
      8 C7          2.3314   -3.5970    2.2355 C.3       1 <0>         0.1540
      9 C8          1.5927   -2.3734    2.6300 C.3       1 <0>        -0.0564
     10 C9          0.5238   -2.6607    3.6768 C.3       1 <0>        -0.1294
     11 C10         1.0473   -2.7642    5.0791 C.3       1 <0>        -0.0979
     12 C11         1.8941   -3.9903    5.2931 C.3       1 <0>        -0.6511
     13 S1          3.5396   -3.8704    4.6206 S.o2      1 <0>         2.6310
     14 O1          4.3118   -4.9810    5.0560 O.2       1 <0>        -0.9634
     15 O2          4.0306   -2.5492    4.8012 O.2       1 <0>        -0.9567
     16 N2          3.4652   -4.0472    2.9986 N.pl3     1 <0>        -0.9802
     17 C12         4.5910   -4.6773    2.3045 C.3       1 <0>         0.0820
     18 C13        -0.3268   -5.1447   -0.0119 C.2       1 <0>         0.5692
     19 O3         -0.1759   -6.3400    0.1494 O.2       1 <0>        -0.5122
     20 N3         -1.2801   -4.6929   -0.8506 N.am      1 <0>        -0.7226
     21 C14        -2.1345   -5.6424   -1.5680 C.3       1 <0>         0.1277
     22 H1         -1.5560   -6.5300   -1.8241 H         1 <0>         0.1082
     23 C15        -3.3133   -6.0412   -0.6778 C.3       1 <0>        -0.1018
     24 C16        -2.8030   -6.7933    0.5243 C.ar      1 <0>        -0.0773
     25 C17        -2.6684   -8.1682    0.4734 C.ar      1 <0>        -0.1062
     26 C18        -2.2004   -8.8581    1.5760 C.ar      1 <0>        -0.1111
     27 C19        -1.8665   -8.1732    2.7294 C.ar      1 <0>        -0.1109
     28 C20        -2.0003   -6.7983    2.7800 C.ar      1 <0>        -0.1107
     29 C21        -2.4642   -6.1079    1.6759 C.ar      1 <0>        -0.1030
     30 C22        -2.6601   -4.9894   -2.8479 C.3       1 <0>         0.0748
     31 H2         -1.8211   -4.6256   -3.4411 H         1 <0>         0.1323
     32 C23        -3.4495   -6.0191   -3.6588 C.3       1 <0>        -0.0413
     33 N4         -3.8521   -5.4277   -4.9418 N.4       1 <0>        -0.4744
     34 C24        -4.6100   -6.4163   -5.7203 C.3       1 <0>        -0.0864
     35 C25        -4.0066   -6.8846   -7.0460 C.3       1 <0>        -0.1539
     36 C26        -5.2214   -5.9545   -7.0446 C.3       1 <0>        -0.1532
     37 O4         -3.5135   -3.8947   -2.5084 O.3       1 <0>        -0.5500
     38 H3          1.0039    1.9031    0.0027 H         1 <0>         0.0648
     39 H4         -0.5459    1.8868   -0.8726 H         1 <0>         0.0753
     40 H5         -0.5289    1.8773    0.9072 H         1 <0>         0.0642
     41 H6         -1.0205   -0.3814    0.0098 H         1 <0>         0.0617
     42 H7          0.5123   -0.3556   -0.8948 H         1 <0>         0.0623
     43 H8          1.0768    0.1425    1.8273 H         1 <0>         0.4045
     44 H9         -0.1755   -2.3733   -0.3377 H         1 <0>         0.1132
     45 H10         1.6547   -5.6822    1.7372 H         1 <0>         0.1393
     46 H11         2.8471   -3.2007    1.3609 H         1 <0>         0.0807
     47 H12         2.2901   -1.6198    2.9961 H         1 <0>         0.1136
     48 H13        -0.2184   -1.8632    3.6420 H         1 <0>         0.0841
     49 H14         0.0315   -3.5989    3.4207 H         1 <0>         0.0788
     50 H15         1.6464   -1.8801    5.2974 H         1 <0>         0.0857
     51 H16         0.2036   -2.7943    5.7685 H         1 <0>         0.0919
     52 H17         1.9705   -4.1757    6.3645 H         1 <0>         0.1466
     53 H18         1.3931   -4.8418    4.8328 H         1 <0>         0.1363
     54 H19         5.3135   -3.9138    2.0163 H         1 <0>         0.0657
     55 H20         5.0692   -5.3982    2.9676 H         1 <0>         0.0950
     56 H21         4.2278   -5.1888    1.4131 H         1 <0>         0.0789
     57 H22        -1.4005   -3.7390   -0.9793 H         1 <0>         0.4070
     58 H23        -3.8398   -5.1452   -0.3491 H         1 <0>         0.0812
     59 H24        -3.9955   -6.6773   -1.2417 H         1 <0>         0.0775
     60 H25        -2.9293   -8.7033   -0.4277 H         1 <0>         0.1112
     61 H26        -2.0959   -9.9323    1.5365 H         1 <0>         0.1193
     62 H27        -1.5015   -8.7123    3.5911 H         1 <0>         0.1197
     63 H28        -1.7398   -6.2632    3.6812 H         1 <0>         0.1164
     64 H29        -2.5652   -5.0333    1.7142 H         1 <0>         0.1112
     65 H30        -2.8250   -6.8935   -3.8418 H         1 <0>         0.1473
     66 H31        -4.3376   -6.3170   -3.1014 H         1 <0>         0.1411
     67 H32        -4.4301   -4.6182   -4.7724 H         1 <0>         0.4330
     68 H33        -5.1690   -7.1468   -5.1355 H         1 <0>         0.1780
     69 H34        -3.0473   -6.4592   -7.3405 H         1 <0>         0.1218
     70 H35        -4.1685   -7.9235   -7.3336 H         1 <0>         0.1345
     71 H36        -6.1825   -6.3814   -7.3312 H         1 <0>         0.1348
     72 H37        -5.0612   -4.9170   -7.3382 H         1 <0>         0.1219
     73 H38        -4.2831   -4.1454   -1.9792 H         1 <0>         0.3917
     74 H39        -3.0300   -5.1519   -5.4577 H         1 <0>         0.4265
@<TRIPOS>BOND
     1    1    2 1
     2    1   38 1
     3    1   39 1
     4    1   40 1
     5    2    3 1
     6    2   41 1
     7    2   42 1
     8    3    4 1
     9    3   43 1
    10    4    9 1
    11    4    5 2
    12    5    6 1
    13    5   44 1
    14    6    7 2
    15    6   18 1
    16    7    8 1
    17    7   45 1
    18    8   16 1
    19    8    9 1
    20    8   46 1
    21    9   10 1
    22    9   47 1
    23   10   11 1
    24   10   48 1
    25   10   49 1
    26   11   12 1
    27   11   50 1
    28   11   51 1
    29   12   13 1
    30   12   52 1
    31   12   53 1
    32   13   14 2
    33   13   15 2
    34   13   16 1
    35   16   17 1
    36   17   54 1
    37   17   55 1
    38   17   56 1
    39   18   19 2
    40   18   20 am
    41   20   21 1
    42   20   57 1
    43   21   22 1
    44   21   23 1
    45   21   30 1
    46   23   24 1
    47   23   58 1
    48   23   59 1
    49   24   29 ar
    50   24   25 ar
    51   25   26 ar
    52   25   60 1
    53   26   27 ar
    54   26   61 1
    55   27   28 ar
    56   27   62 1
    57   28   29 ar
    58   28   63 1
    59   29   64 1
    60   30   31 1
    61   30   32 1
    62   30   37 1
    63   32   33 1
    64   32   65 1
    65   32   66 1
    66   33   34 1
    67   33   67 1
    68   33   74 1
    69   34   36 1
    70   34   35 1
    71   34   68 1
    72   35   36 1
    73   35   69 1
    74   35   70 1
    75   36   71 1
    76   36   72 1
    77   37   73 1
@<TRIPOS>MOLECULE
CHEMBL561096__3
   74    77     0     0     0
SMALL
USER_CHARGES

@<TRIPOS>ATOM
      1 C1          0.6291    1.3455   -0.5389 C.3       1 <0>        -0.1698
      2 C2          0.6712   -0.1830   -0.4862 C.3       1 <0>         0.1202
      3 N1          1.1491   -0.6133    0.8302 N.pl3     1 <0>        -0.7397
      4 C3          1.2715   -1.9616    1.1149 C.2       1 <0>         0.2203
      5 C4          0.8380   -2.8350    0.2143 C.2       1 <0>        -0.2735
      6 C5          0.9766   -4.2799    0.4689 C.2       1 <0>        -0.0844
      7 C6          1.6670   -4.7015    1.5318 C.2       1 <0>        -0.1105
      8 C7          2.3488   -3.7727    2.4942 C.3       1 <0>         0.2089
      9 C8          1.8929   -2.3571    2.4227 C.3       1 <0>        -0.1043
     10 C9          2.9888   -1.3669    2.7530 C.3       1 <0>        -0.1390
     11 C10         3.0809   -1.0076    4.2040 C.3       1 <0>        -0.0991
     12 C11         3.5520   -2.1902    5.0252 C.3       1 <0>        -0.6553
     13 S1          2.3269   -3.4722    5.2131 S.o2      1 <0>         2.6373
     14 O1          2.7842   -4.4222    6.1658 O.2       1 <0>        -0.9613
     15 O2          1.0457   -2.8776    5.3686 O.2       1 <0>        -0.9598
     16 N2          2.1758   -4.3382    3.8404 N.pl3     1 <0>        -1.0065
     17 C12         1.8641   -5.7653    3.9522 C.3       1 <0>         0.0814
     18 C13         0.3538   -5.2587   -0.4481 C.2       1 <0>         0.5670
     19 O3          0.4698   -6.4499   -0.2356 O.2       1 <0>        -0.5105
     20 N3         -0.3426   -4.8301   -1.5194 N.am      1 <0>        -0.7220
     21 C14        -0.9596   -5.7997   -2.4279 C.3       1 <0>         0.1276
     22 H1         -0.3228   -6.6809   -2.5058 H         1 <0>         0.1086
     23 C15        -2.3303   -6.2076   -1.8840 C.3       1 <0>        -0.1018
     24 C16        -2.1551   -6.9397   -0.5785 C.ar      1 <0>        -0.0784
     25 C17        -1.9952   -8.3128   -0.5721 C.ar      1 <0>        -0.1071
     26 C18        -1.8346   -8.9844    0.6254 C.ar      1 <0>        -0.1116
     27 C19        -1.8334   -8.2829    1.8165 C.ar      1 <0>        -0.1104
     28 C20        -1.9924   -6.9097    1.8101 C.ar      1 <0>        -0.1092
     29 C21        -2.1487   -6.2376    0.6123 C.ar      1 <0>        -0.1033
     30 C22        -1.1272   -5.1677   -3.8111 C.3       1 <0>         0.0748
     31 H2         -0.1636   -4.7971   -4.1604 H         1 <0>         0.1329
     32 C23        -1.6555   -6.2175   -4.7908 C.3       1 <0>        -0.0413
     33 N4         -1.7032   -5.6452   -6.1430 N.4       1 <0>        -0.4744
     34 C24        -2.2103   -6.6531   -7.0836 C.3       1 <0>        -0.0866
     35 C25        -3.5375   -6.3595   -7.7860 C.3       1 <0>        -0.1540
     36 C26        -2.2252   -6.2885   -8.5695 C.3       1 <0>        -0.1531
     37 O4         -2.0539   -4.0829   -3.7300 O.3       1 <0>        -0.5506
     38 H3          1.6297    1.7426   -0.3680 H         1 <0>         0.0634
     39 H4          0.2736    1.6656   -1.5183 H         1 <0>         0.0750
     40 H5         -0.0460    1.7171    0.2319 H         1 <0>         0.0639
     41 H6         -0.3293   -0.5802   -0.6572 H         1 <0>         0.0611
     42 H7          1.3463   -0.5547   -1.2571 H         1 <0>         0.0628
     43 H8          1.3796    0.0472    1.5021 H         1 <0>         0.4008
     44 H9          0.3845   -2.4877   -0.7023 H         1 <0>         0.1195
     45 H10         1.7381   -5.7646    1.7080 H         1 <0>         0.1408
     46 H11         3.4145   -3.7776    2.2654 H         1 <0>         0.0871
     47 H12         1.1268   -2.2334    3.1881 H         1 <0>         0.1146
     48 H13         3.9433   -1.7904    2.4404 H         1 <0>         0.0811
     49 H14         2.8152   -0.4553    2.1813 H         1 <0>         0.0900
     50 H15         3.7846   -0.1841    4.3252 H         1 <0>         0.0963
     51 H16         2.0990   -0.6938    4.5584 H         1 <0>         0.0881
     52 H17         4.4323   -2.6181    4.5455 H         1 <0>         0.1370
     53 H18         3.8377   -1.8344    6.0152 H         1 <0>         0.1483
     54 H19         2.6195   -6.3449    3.4216 H         1 <0>         0.0705
     55 H20         1.8564   -6.0542    5.0032 H         1 <0>         0.0924
     56 H21         0.8845   -5.9586    3.5151 H         1 <0>         0.0693
     57 H22        -0.4352   -3.8795   -1.6890 H         1 <0>         0.4069
     58 H23        -2.9368   -5.3165   -1.7223 H         1 <0>         0.0810
     59 H24        -2.8269   -6.8597   -2.6025 H         1 <0>         0.0778
     60 H25        -1.9962   -8.8609   -1.5027 H         1 <0>         0.1106
     61 H26        -1.7104  -10.0572    0.6304 H         1 <0>         0.1189
     62 H27        -1.7086   -8.8076    2.7522 H         1 <0>         0.1204
     63 H28        -1.9917   -6.3617    2.7407 H         1 <0>         0.1185
     64 H29        -2.2692   -5.1644    0.6070 H         1 <0>         0.1108
     65 H30        -0.9943   -7.0841   -4.7862 H         1 <0>         0.1472
     66 H31        -2.6575   -6.5234   -4.4902 H         1 <0>         0.1416
     67 H32        -2.3152   -4.8430   -6.1473 H         1 <0>         0.4300
     68 H33        -1.9976   -7.6896   -6.8219 H         1 <0>         0.1784
     69 H34        -4.1983   -7.2028   -7.9863 H         1 <0>         0.1343
     70 H35        -4.0343   -5.4184   -7.5501 H         1 <0>         0.1218
     71 H36        -1.8587   -5.3008   -8.8490 H         1 <0>         0.1218
     72 H37        -2.0227   -7.0852   -9.2853 H         1 <0>         0.1348
     73 H38        -2.9348   -4.3400   -3.4251 H         1 <0>         0.3918
     74 H39        -0.7756   -5.3621   -6.4212 H         1 <0>         0.4295
@<TRIPOS>BOND
     1    1    2 1
     2    1   38 1
     3    1   39 1
     4    1   40 1
     5    2    3 1
     6    2   41 1
     7    2   42 1
     8    3    4 1
     9    3   43 1
    10    4    9 1
    11    4    5 2
    12    5    6 1
    13    5   44 1
    14    6    7 2
    15    6   18 1
    16    7    8 1
    17    7   45 1
    18    8   16 1
    19    8    9 1
    20    8   46 1
    21    9   10 1
    22    9   47 1
    23   10   11 1
    24   10   48 1
    25   10   49 1
    26   11   12 1
    27   11   50 1
    28   11   51 1
    29   12   13 1
    30   12   52 1
    31   12   53 1
    32   13   14 2
    33   13   15 2
    34   13   16 1
    35   16   17 1
    36   17   54 1
    37   17   55 1
    38   17   56 1
    39   18   19 2
    40   18   20 am
    41   20   21 1
    42   20   57 1
    43   21   22 1
    44   21   23 1
    45   21   30 1
    46   23   24 1
    47   23   58 1
    48   23   59 1
    49   24   29 ar
    50   24   25 ar
    51   25   26 ar
    52   25   60 1
    53   26   27 ar
    54   26   61 1
    55   27   28 ar
    56   27   62 1
    57   28   29 ar
    58   28   63 1
    59   29   64 1
    60   30   31 1
    61   30   32 1
    62   30   37 1
    63   32   33 1
    64   32   65 1
    65   32   66 1
    66   33   34 1
    67   33   67 1
    68   33   74 1
    69   34   36 1
    70   34   35 1
    71   34   68 1
    72   35   36 1
    73   35   69 1
    74   35   70 1
    75   36   71 1
    76   36   72 1
    77   37   73 1
@<TRIPOS>MOLECULE
CHEMBL1209355
   77    80     0     0     0
SMALL
USER_CHARGES

@<TRIPOS>ATOM
      1 C1         -1.9272    2.8207    0.3871 C.3       1 <0>        -0.1820
      2 C2         -1.3437    1.4794    0.0248 C.2       1 <0>         0.5119
      3 O1         -0.8562    0.7776    0.8855 O.2       1 <0>        -0.5323
      4 N1         -1.3635    1.0595   -1.2558 N.am      1 <0>        -0.7319
      5 C3         -0.7961   -0.2444   -1.6080 C.3       1 <0>         0.1326
      6 H1         -0.9026   -0.4094   -2.6802 H         1 <0>         0.1049
      7 C4          0.6867   -0.2738   -1.2323 C.3       1 <0>        -0.0989
      8 C5          1.4375    0.7275   -2.0717 C.ar      1 <0>        -0.0279
      9 C6          1.9703    0.3469   -3.2888 C.ar      1 <0>        -0.1646
     10 C7          2.6608    1.2660   -4.0609 C.ar      1 <0>         0.1397
     11 C8          2.8169    2.5665   -3.6134 C.ar      1 <0>        -0.1926
     12 C9          2.2825    2.9467   -2.3944 C.ar      1 <0>         0.1387
     13 C10         1.5879    2.0273   -1.6265 C.ar      1 <0>        -0.1582
     14 F1          2.4341    4.2157   -1.9565 F         1 <0>        -0.1260
     15 F2          3.1823    0.8934   -5.2502 F         1 <0>        -0.1256
     16 C11        -1.5371   -1.3454   -0.8466 C.3       1 <0>         0.0687
     17 H2         -1.4306   -1.1805    0.2256 H         1 <0>         0.1442
     18 C12        -3.0199   -1.3161   -1.2223 C.3       1 <0>        -0.0536
     19 N2         -3.7518   -2.2922   -0.4040 N.4       1 <0>        -0.4978
     20 C13        -5.1501   -2.3545   -0.8499 C.3       1 <0>         0.1153
     21 C14        -5.8014   -0.9805   -0.6796 C.3       1 <0>        -0.1348
     22 C15        -5.7538   -0.5728    0.7943 C.3       1 <0>        -0.1353
     23 C16        -6.5113   -1.6038    1.6335 C.3       1 <0>        -0.1319
     24 C17        -5.8599   -2.9777    1.4631 C.3       1 <0>        -0.1366
     25 C18        -5.9075   -3.3855   -0.0107 C.3       1 <0>        -0.1301
     26 C19        -5.1970   -2.7561   -2.3016 C.ar      1 <0>        -0.0736
     27 C20        -4.2282   -3.5980   -2.8170 C.ar      1 <0>        -0.1973
     28 C21        -4.2672   -3.9686   -4.1485 C.ar      1 <0>        -0.0490
     29 C22        -5.2748   -3.4992   -4.9684 C.ar      1 <0>        -0.1805
     30 C23        -6.2495   -2.6540   -4.4540 C.ar      1 <0>         0.2308
     31 C24        -6.2103   -2.2878   -3.1144 C.ar      1 <0>        -0.1780
     32 N3         -7.2699   -2.1776   -5.2803 N.pl3     1 <0>        -0.6148
     33 C25        -8.2087   -1.1750   -4.7424 C.3       1 <0>         0.1159
     34 C26        -8.5061   -0.0848   -5.7824 C.3       1 <0>        -0.1717
     35 C27        -7.2331    0.2705   -6.5238 C.3       1 <0>         0.0763
     36 O2         -7.1350   -0.5480   -7.6819 O.3       1 <0>        -0.3836
     37 C28        -6.5390   -1.7892   -7.5868 C.3       1 <0>         0.0568
     38 C29        -7.3628   -2.6832   -6.6374 C.3       1 <0>         0.0742
     39 O3         -0.9837   -2.6174   -1.1901 O.3       1 <0>        -0.5423
     40 H3         -1.1533    3.5849    0.3158 H         1 <0>         0.1023
     41 H4         -2.7393    3.0609   -0.2991 H         1 <0>         0.0830
     42 H5         -2.3112    2.7865    1.4067 H         1 <0>         0.0996
     43 H6         -1.7533    1.6208   -1.9442 H         1 <0>         0.4112
     44 H7          0.7995   -0.0212   -0.1779 H         1 <0>         0.1082
     45 H8          1.0873   -1.2715   -1.4117 H         1 <0>         0.1016
     46 H9          1.8484   -0.6679   -3.6378 H         1 <0>         0.1431
     47 H10         3.3556    3.2839   -4.2147 H         1 <0>         0.1522
     48 H11         1.1671    2.3249   -0.6775 H         1 <0>         0.1358
     49 H12        -3.4205   -0.3184   -1.0428 H         1 <0>         0.1388
     50 H13        -3.1327   -1.5686   -2.2766 H         1 <0>         0.1426
     51 H14        -3.3260   -3.2014   -0.5040 H         1 <0>         0.4284
     52 H15        -5.2618   -0.2460   -1.2774 H         1 <0>         0.0881
     53 H16        -6.8390   -1.0268   -1.0104 H         1 <0>         0.1116
     54 H17        -4.7163   -0.5265    1.1252 H         1 <0>         0.0570
     55 H18        -6.2178    0.4060    0.9157 H         1 <0>         0.0937
     56 H19        -6.4773   -1.3133    2.6835 H         1 <0>         0.0822
     57 H20        -7.5488   -1.6500    1.3026 H         1 <0>         0.0799
     58 H21        -4.8224   -2.9315    1.7940 H         1 <0>         0.0580
     59 H22        -6.3995   -3.7122    2.0610 H         1 <0>         0.0951
     60 H23        -6.9451   -3.4317   -0.3416 H         1 <0>         0.1124
     61 H24        -5.4435   -4.3643   -0.1321 H         1 <0>         0.0913
     62 H25        -3.4393   -3.9664   -2.1781 H         1 <0>         0.1144
     63 H26        -3.5088   -4.6256   -4.5480 H         1 <0>         0.1339
     64 H27        -5.3045   -3.7888   -6.0084 H         1 <0>         0.1329
     65 H28        -6.9690   -1.6339   -2.7102 H         1 <0>         0.1341
     66 H29        -9.1400   -1.6690   -4.4656 H         1 <0>         0.0681
     67 H30        -7.7717   -0.7146   -3.8563 H         1 <0>         0.0789
     68 H31        -9.2485   -0.4520   -6.4910 H         1 <0>         0.0850
     69 H32        -8.8924    0.8014   -5.2789 H         1 <0>         0.0913
     70 H33        -7.2628    1.3194   -6.8190 H         1 <0>         0.0937
     71 H34        -6.3729    0.0946   -5.8780 H         1 <0>         0.0493
     72 H35        -6.4963   -2.2483   -8.5745 H         1 <0>         0.1089
     73 H36        -5.5284   -1.6778   -7.1940 H         1 <0>         0.0433
     74 H37        -6.9721   -3.7002   -6.6735 H         1 <0>         0.0878
     75 H38        -8.4057   -2.6836   -6.9542 H         1 <0>         0.0899
     76 H39        -1.0439   -2.8312   -2.1313 H         1 <0>         0.3869
     77 H40        -3.7198   -2.0105    0.5644 H         1 <0>         0.4263
@<TRIPOS>BOND
     1    1    2 1
     2    1   40 1
     3    1   41 1
     4    1   42 1
     5    2    3 2
     6    2    4 am
     7    4    5 1
     8    4   43 1
     9    5    6 1
    10    5    7 1
    11    5   16 1
    12    7    8 1
    13    7   44 1
    14    7   45 1
    15    8   13 ar
    16    8    9 ar
    17    9   10 ar
    18    9   46 1
    19   10   11 ar
    20   10   15 1
    21   11   12 ar
    22   11   47 1
    23   12   13 ar
    24   12   14 1
    25   13   48 1
    26   16   17 1
    27   16   18 1
    28   16   39 1
    29   18   19 1
    30   18   49 1
    31   18   50 1
    32   19   20 1
    33   19   51 1
    34   19   77 1
    35   20   25 1
    36   20   21 1
    37   20   26 1
    38   21   22 1
    39   21   52 1
    40   21   53 1
    41   22   23 1
    42   22   54 1
    43   22   55 1
    44   23   24 1
    45   23   56 1
    46   23   57 1
    47   24   25 1
    48   24   58 1
    49   24   59 1
    50   25   60 1
    51   25   61 1
    52   26   31 ar
    53   26   27 ar
    54   27   28 ar
    55   27   62 1
    56   28   29 ar
    57   28   63 1
    58   29   30 ar
    59   29   64 1
    60   30   31 ar
    61   30   32 1
    62   31   65 1
    63   32   38 1
    64   32   33 1
    65   33   34 1
    66   33   66 1
    67   33   67 1
    68   34   35 1
    69   34   68 1
    70   34   69 1
    71   35   36 1
    72   35   70 1
    73   35   71 1
    74   36   37 1
    75   37   38 1
    76   37   72 1
    77   37   73 1
    78   38   74 1
    79   38   75 1
    80   39   76 1
@<TRIPOS>MOLECULE
CHEMBL252057
   77    80     0     0     0
SMALL
USER_CHARGES

@<TRIPOS>ATOM
      1 C1         -0.0188    1.5256   -0.0382 C.3       1 <0>        -0.1680
      2 C2          0.0020   -0.0042   -0.0285 C.3       1 <0>         0.1216
      3 N1         -1.3724   -0.5112   -0.0180 N.pl3     1 <0>        -0.7460
      4 C3         -1.6090   -1.8881   -0.0079 C.ar      1 <0>         0.2383
      5 C4         -0.5418   -2.7745   -0.0020 C.ar      1 <0>        -0.1947
      6 C5         -0.7792   -4.1488    0.0086 C.ar      1 <0>        -0.0651
      7 C6         -2.0898   -4.6271    0.0131 C.ar      1 <0>        -0.1518
      8 C7         -3.1516   -3.7355    0.0072 C.ar      1 <0>         0.2104
      9 C8         -2.9119   -2.3678    0.0020 C.ar      1 <0>        -0.2102
     10 N2         -4.4665   -4.2146    0.0113 N.am      1 <0>        -0.5620
     11 C9         -5.6575   -3.3639    0.1202 C.3       1 <0>         0.0940
     12 C10        -6.8369   -4.2438   -0.3503 C.3       1 <0>        -0.1323
     13 C11        -6.3058   -5.6661   -0.0570 C.3       1 <0>        -0.1544
     14 C12        -4.8012   -5.5126   -0.0897 C.2       1 <0>         0.5151
     15 O1         -4.0116   -6.4277   -0.1899 O.2       1 <0>        -0.4975
     16 C13         0.3557   -5.0969    0.0144 C.2       1 <0>         0.5639
     17 O2          0.1472   -6.2943    0.0236 O.2       1 <0>        -0.4958
     18 N3          1.6211   -4.6332    0.0095 N.am      1 <0>        -0.7253
     19 C14         2.7454   -5.5724    0.0153 C.3       1 <0>         0.1276
     20 H1          2.4852   -6.4469    0.6116 H         1 <0>         0.1089
     21 C15         3.0546   -6.0066   -1.4188 C.3       1 <0>        -0.1007
     22 C16         1.8880   -6.7847   -1.9707 C.ar      1 <0>        -0.0802
     23 C17         1.8327   -8.1562   -1.8074 C.ar      1 <0>        -0.1076
     24 C18         0.7626   -8.8700   -2.3136 C.ar      1 <0>        -0.1110
     25 C19        -0.2525   -8.2121   -2.9827 C.ar      1 <0>        -0.1072
     26 C20        -0.1977   -6.8404   -3.1452 C.ar      1 <0>        -0.1055
     27 C21         0.8703   -6.1262   -2.6353 C.ar      1 <0>        -0.1046
     28 C22         3.9757   -4.8915    0.6185 C.3       1 <0>         0.0763
     29 H2          3.7284   -4.5036    1.6066 H         1 <0>         0.1328
     30 C23         5.1130   -5.9077    0.7395 C.3       1 <0>        -0.0499
     31 N4          6.2531   -5.2871    1.4273 N.4       1 <0>        -0.5024
     32 C24         7.3451   -6.2628    1.5436 C.3       1 <0>         0.0249
     33 C25         6.9050   -7.4153    2.4485 C.3       1 <0>        -0.1424
     34 C26         8.0424   -8.4315    2.5696 C.3       1 <0>        -0.1179
     35 C27         9.2726   -7.7507    3.1727 C.3       1 <0>        -0.1323
     36 C28         9.7126   -6.5981    2.2678 C.3       1 <0>        -0.1177
     37 C29         8.5753   -5.5819    2.1468 C.3       1 <0>        -0.1404
     38 O3          4.3867   -3.8150   -0.2267 O.3       1 <0>        -0.5500
     39 H3          1.0038    1.9029   -0.0460 H         1 <0>         0.0745
     40 H4         -0.5422    1.8762   -0.9278 H         1 <0>         0.0639
     41 H5         -0.5328    1.8877    0.8521 H         1 <0>         0.0635
     42 H6          0.5161   -0.3663   -0.9189 H         1 <0>         0.0589
     43 H7          0.5254   -0.3548    0.8610 H         1 <0>         0.0578
     44 H8         -2.1182    0.1091   -0.0181 H         1 <0>         0.4027
     45 H9          0.4715   -2.4008   -0.0059 H         1 <0>         0.1211
     46 H10        -2.2771   -5.6907    0.0210 H         1 <0>         0.1669
     47 H11        -3.7409   -1.6756    0.0015 H         1 <0>         0.1294
     48 H12        -5.8069   -3.0547    1.1547 H         1 <0>         0.0841
     49 H13        -5.5576   -2.4908   -0.5246 H         1 <0>         0.0879
     50 H14        -7.7352   -4.0353    0.2308 H         1 <0>         0.0996
     51 H15        -7.0233   -4.1090   -1.4158 H         1 <0>         0.0878
     52 H16        -6.6375   -6.0021    0.9254 H         1 <0>         0.1124
     53 H17        -6.6324   -6.3621   -0.8296 H         1 <0>         0.1101
     54 H18         1.7875   -3.6776    0.0022 H         1 <0>         0.4047
     55 H19         3.2279   -5.1250   -2.0360 H         1 <0>         0.0810
     56 H20         3.9454   -6.6347   -1.4242 H         1 <0>         0.0779
     57 H21         2.6258   -8.6702   -1.2846 H         1 <0>         0.1109
     58 H22         0.7197   -9.9416   -2.1866 H         1 <0>         0.1191
     59 H23        -1.0883   -8.7698   -3.3788 H         1 <0>         0.1196
     60 H24        -0.9906   -6.3265   -3.6682 H         1 <0>         0.1163
     61 H25         0.9113   -5.0541   -2.7590 H         1 <0>         0.1094
     62 H26         4.7701   -6.7705    1.3105 H         1 <0>         0.1478
     63 H27         5.4203   -6.2294   -0.2555 H         1 <0>         0.1414
     64 H28         6.5705   -4.4884    0.8988 H         1 <0>         0.4320
     65 H29         7.5924   -6.6507    0.5554 H         1 <0>         0.1394
     66 H30         6.6577   -7.0274    3.4366 H         1 <0>         0.0880
     67 H31         6.0286   -7.9004    2.0188 H         1 <0>         0.0869
     68 H32         7.7289   -9.2526    3.2143 H         1 <0>         0.0853
     69 H33         8.2897   -8.8195    1.5814 H         1 <0>         0.0748
     70 H34         9.0253   -7.3627    4.1609 H         1 <0>         0.0705
     71 H35        10.0829   -8.4746    3.2590 H         1 <0>         0.0799
     72 H36        10.5891   -6.1130    2.6975 H         1 <0>         0.0855
     73 H37         9.9600   -6.9861    1.2797 H         1 <0>         0.0748
     74 H38         8.8888   -4.7608    1.5021 H         1 <0>         0.0880
     75 H39         8.3280   -5.1939    3.1349 H         1 <0>         0.0875
     76 H40         4.6226   -4.0875   -1.1240 H         1 <0>         0.3914
     77 H41         5.9686   -4.9893    2.3485 H         1 <0>         0.4267
@<TRIPOS>BOND
     1    1    2 1
     2    1   39 1
     3    1   40 1
     4    1   41 1
     5    2    3 1
     6    2   42 1
     7    2   43 1
     8    3    4 1
     9    3   44 1
    10    4    9 ar
    11    4    5 ar
    12    5    6 ar
    13    5   45 1
    14    6    7 ar
    15    6   16 1
    16    7    8 ar
    17    7   46 1
    18    8    9 ar
    19    8   10 1
    20    9   47 1
    21   10   14 am
    22   10   11 1
    23   11   12 1
    24   11   48 1
    25   11   49 1
    26   12   13 1
    27   12   50 1
    28   12   51 1
    29   13   14 1
    30   13   52 1
    31   13   53 1
    32   14   15 2
    33   16   17 2
    34   16   18 am
    35   18   19 1
    36   18   54 1
    37   19   20 1
    38   19   21 1
    39   19   28 1
    40   21   22 1
    41   21   55 1
    42   21   56 1
    43   22   27 ar
    44   22   23 ar
    45   23   24 ar
    46   23   57 1
    47   24   25 ar
    48   24   58 1
    49   25   26 ar
    50   25   59 1
    51   26   27 ar
    52   26   60 1
    53   27   61 1
    54   28   29 1
    55   28   30 1
    56   28   38 1
    57   30   31 1
    58   30   62 1
    59   30   63 1
    60   31   32 1
    61   31   64 1
    62   31   77 1
    63   32   37 1
    64   32   33 1
    65   32   65 1
    66   33   34 1
    67   33   66 1
    68   33   67 1
    69   34   35 1
    70   34   68 1
    71   34   69 1
    72   35   36 1
    73   35   70 1
    74   35   71 1
    75   36   37 1
    76   36   72 1
    77   36   73 1
    78   37   74 1
    79   37   75 1
    80   38   76 1
@<TRIPOS>MOLECULE
CHEMBL575326
   43    47     0     0     0
SMALL
USER_CHARGES

@<TRIPOS>ATOM
      1 C1         -0.0167    1.3782    0.0096 C.ar      1 <0>        -0.1108
      2 C2          1.1712    2.0850    0.0021 C.ar      1 <0>        -0.0979
      3 C3          2.3785    1.4143   -0.0297 C.ar      1 <0>        -0.1228
      4 C4          2.4084    0.0241   -0.0453 C.ar      1 <0>         0.1218
      5 C5          1.2119   -0.6843   -0.0095 C.ar      1 <0>         0.1377
      6 C6          0.0021   -0.0041    0.0020 C.ar      1 <0>        -0.1080
      7 N1          1.2100   -2.0835    0.0608 N.pl3     1 <0>        -0.7225
      8 C7          1.7987   -2.7098    1.1536 C.ar      1 <0>         0.2081
      9 C8          1.0371   -3.5277    1.9759 C.ar      1 <0>        -0.0713
     10 C9          1.6159   -4.1195    3.0963 C.ar      1 <0>        -0.1109
     11 C10         2.9615   -3.8862    3.3921 C.ar      1 <0>        -0.0999
     12 C11         3.7239   -3.0895    2.5694 C.ar      1 <0>        -0.0460
     13 C12         3.1580   -2.5083    1.4296 C.ar      1 <0>        -0.1100
     14 C13         4.0018   -1.7258    0.5158 C.2       1 <0>         0.5667
     15 O1          5.1344   -2.1258    0.3293 O.2       1 <0>        -0.5218
     16 N2          3.6392   -0.6252   -0.1220 N.am      1 <0>        -0.6469
     17 C14         0.8060   -4.9945    3.9730 C.2       1 <0>         0.5864
     18 O2         -0.3643   -5.1969    3.7157 O.2       1 <0>        -0.5079
     19 N3          1.3664   -5.5670    5.0569 N.am      1 <0>        -0.6228
     20 C15         0.6094   -6.3849    5.8764 C.2       1 <0>         0.5691
     21 N4          1.0511   -6.9888    6.9508 N.2       1 <0>        -0.4822
     22 C16         0.0472   -7.7078    7.5134 C.ar      1 <0>         0.0564
     23 C17        -0.0546   -8.5242    8.6392 C.ar      1 <0>         0.2023
     24 N5         -1.1987   -9.1047    8.9371 N.ar      1 <0>        -0.4374
     25 C18        -2.2853   -8.9469    8.2008 C.ar      1 <0>         0.0974
     26 C19        -2.2747   -8.1568    7.0701 C.ar      1 <0>        -0.0865
     27 C20        -1.0942   -7.5201    6.7092 C.ar      1 <0>         0.1296
     28 N6         -0.7121   -6.6777    5.6881 N.pl3     1 <0>        -0.5660
     29 H1         -0.9590    1.9056    0.0260 H         1 <0>         0.1343
     30 H2          1.1554    3.1647    0.0207 H         1 <0>         0.1357
     31 H3          3.3032    1.9721   -0.0429 H         1 <0>         0.1354
     32 H4         -0.9264   -0.5557    0.0054 H         1 <0>         0.1337
     33 H5          0.8022   -2.6094   -0.6449 H         1 <0>         0.4171
     34 H6         -0.0036   -3.7050    1.7478 H         1 <0>         0.1517
     35 H7          3.4046   -4.3327    4.2700 H         1 <0>         0.1396
     36 H8          4.7630   -2.9118    2.8044 H         1 <0>         0.1518
     37 H9          4.3023   -0.2265   -0.7070 H         1 <0>         0.4151
     38 H10        -1.2759   -6.3541    4.9682 H         1 <0>         0.4551
     39 H11         0.8083   -8.6815    9.2692 H         1 <0>         0.2201
     40 H12        -3.1983   -9.4462    8.4898 H         1 <0>         0.2158
     41 H13        -3.1683   -8.0358    6.4759 H         1 <0>         0.1850
     42 H14        -1.2457   -9.6686    9.7250 H         1 <0>         0.4581
     43 H15         2.3005   -5.4055    5.2623 H         1 <0>         0.4475
@<TRIPOS>BOND
     1    1    6 ar
     2    1    2 ar
     3    1   29 1
     4    2    3 ar
     5    2   30 1
     6    3    4 ar
     7    3   31 1
     8    4   16 1
     9    4    5 ar
    10    5    6 ar
    11    5    7 1
    12    6   32 1
    13    7    8 1
    14    7   33 1
    15    8   13 ar
    16    8    9 ar
    17    9   10 ar
    18    9   34 1
    19   10   11 ar
    20   10   17 1
    21   11   12 ar
    22   11   35 1
    23   12   13 ar
    24   12   36 1
    25   13   14 1
    26   14   15 2
    27   14   16 am
    28   16   37 1
    29   17   18 2
    30   17   19 am
    31   19   20 1
    32   19   43 1
    33   20   21 2
    34   20   28 1
    35   21   22 1
    36   22   23 ar
    37   22   27 ar
    38   23   24 ar
    39   23   39 1
    40   24   25 ar
    41   24   42 1
    42   25   26 ar
    43   25   40 1
    44   26   27 ar
    45   26   41 1
    46   27   28 1
    47   28   38 1
@<TRIPOS>MOLECULE
CHEMBL575326__1
   41    45     0     0     0
SMALL
USER_CHARGES

@<TRIPOS>ATOM
      1 C1         -0.0167    1.3782    0.0096 C.ar      1 <0>        -0.1162
      2 C2          1.1712    2.0850    0.0021 C.ar      1 <0>        -0.1100
      3 C3          2.3785    1.4143   -0.0292 C.ar      1 <0>        -0.1294
      4 C4          2.4084    0.0241   -0.0452 C.ar      1 <0>         0.1249
      5 C5          1.2119   -0.6843   -0.0099 C.ar      1 <0>         0.1559
      6 C6          0.0021   -0.0041    0.0020 C.ar      1 <0>        -0.1118
      7 N1          1.2100   -2.0835    0.0598 N.pl3     1 <0>        -0.7256
      8 C7          1.7989   -2.7101    1.1525 C.ar      1 <0>         0.1886
      9 C8          1.0378   -3.5278    1.9738 C.ar      1 <0>        -0.1012
     10 C9          1.6174   -4.1206    3.0952 C.ar      1 <0>        -0.0044
     11 C10         2.9645   -3.8865    3.3911 C.ar      1 <0>        -0.0945
     12 C11         3.7256   -3.0898    2.5688 C.ar      1 <0>        -0.0620
     13 C12         3.1589   -2.5082    1.4287 C.ar      1 <0>        -0.1607
     14 C13         4.0018   -1.7259    0.5156 C.2       1 <0>         0.5780
     15 O1          5.1344   -2.1260    0.3286 O.2       1 <0>        -0.5402
     16 N2          3.6392   -0.6252   -0.1219 N.am      1 <0>        -0.6534
     17 C14         0.8096   -4.9942    3.9700 C.2       1 <0>         0.4519
     18 O2         -0.4910   -5.2194    3.6840 O.3       1 <0>        -0.6426
     19 N3          1.3558   -5.5520    5.0257 N.2       1 <0>        -0.6533
     20 C15         0.6165   -6.3516    5.8262 C.2       1 <0>         0.5364
     21 N4         -0.6541   -6.6398    5.6439 N.2       1 <0>        -0.5117
     22 C16        -1.0778   -7.4661    6.6293 C.ar      1 <0>         0.0352
     23 C17        -2.2967   -8.0757    6.9317 C.ar      1 <0>         0.1244
     24 N5         -2.4067   -8.8503    7.9909 N.ar      1 <0>        -0.4912
     25 C18        -1.3914   -9.0860    8.8043 C.ar      1 <0>         0.0489
     26 C19        -0.1507   -8.5255    8.5818 C.ar      1 <0>        -0.1565
     27 C20         0.0232   -7.6991    7.4790 C.ar      1 <0>         0.0489
     28 N6          1.0790   -6.9907    6.9495 N.pl3     1 <0>        -0.6115
     29 H1         -0.9590    1.9056    0.0260 H         1 <0>         0.1283
     30 H2          1.1554    3.1647    0.0203 H         1 <0>         0.1280
     31 H3          3.3033    1.9721   -0.0417 H         1 <0>         0.1286
     32 H4         -0.9264   -0.5557    0.0050 H         1 <0>         0.1329
     33 H5          0.8022   -2.6092   -0.6460 H         1 <0>         0.4105
     34 H6         -0.0027   -3.7053    1.7455 H         1 <0>         0.1421
     35 H7          3.4080   -4.3330    4.2688 H         1 <0>         0.1454
     36 H8          4.7647   -2.9120    2.8034 H         1 <0>         0.1314
     37 H9          4.3023   -0.2263   -0.7067 H         1 <0>         0.4051
     38 H10         1.9807   -6.9499    7.3049 H         1 <0>         0.4133
     39 H11        -3.1530   -7.9111    6.2946 H         1 <0>         0.1521
     40 H12        -1.5363   -9.7293    9.6596 H         1 <0>         0.1468
     41 H13         0.6709   -8.7253    9.2537 H         1 <0>         0.1187
@<TRIPOS>BOND
     1    1    6 ar
     2    1    2 ar
     3    1   29 1
     4    2    3 ar
     5    2   30 1
     6    3    4 ar
     7    3   31 1
     8    4   16 1
     9    4    5 ar
    10    5    6 ar
    11    5    7 1
    12    6   32 1
    13    7    8 1
    14    7   33 1
    15    8   13 ar
    16    8    9 ar
    17    9   10 ar
    18    9   34 1
    19   10   11 ar
    20   10   17 1
    21   11   12 ar
    22   11   35 1
    23   12   13 ar
    24   12   36 1
    25   13   14 1
    26   14   15 2
    27   14   16 am
    28   16   37 1
    29   17   18 1
    30   17   19 2
    31   19   20 1
    32   20   21 2
    33   20   28 1
    34   21   22 1
    35   22   23 ar
    36   22   27 ar
    37   23   24 ar
    38   23   39 1
    39   24   25 ar
    40   25   26 ar
    41   25   40 1
    42   26   27 ar
    43   26   41 1
    44   27   28 1
    45   28   38 1
@<TRIPOS>MOLECULE
CHEMBL575326__2
   42    46     0     0     0
SMALL
USER_CHARGES

@<TRIPOS>ATOM
      1 C1         -0.0167    1.3782    0.0096 C.ar      1 <0>        -0.1148
      2 C2          1.1712    2.0850    0.0021 C.ar      1 <0>        -0.1063
      3 C3          2.3785    1.4143   -0.0292 C.ar      1 <0>        -0.1273
      4 C4          2.4084    0.0241   -0.0452 C.ar      1 <0>         0.1240
      5 C5          1.2119   -0.6843   -0.0099 C.ar      1 <0>         0.1507
      6 C6          0.0021   -0.0041    0.0020 C.ar      1 <0>        -0.1111
      7 N1          1.2100   -2.0835    0.0598 N.pl3     1 <0>        -0.7253
      8 C7          1.7989   -2.7101    1.1525 C.ar      1 <0>         0.1921
      9 C8          1.0378   -3.5278    1.9738 C.ar      1 <0>        -0.0940
     10 C9          1.6174   -4.1206    3.0952 C.ar      1 <0>        -0.0284
     11 C10         2.9645   -3.8865    3.3911 C.ar      1 <0>        -0.0892
     12 C11         3.7256   -3.0898    2.5688 C.ar      1 <0>        -0.0612
     13 C12         3.1589   -2.5082    1.4287 C.ar      1 <0>        -0.1455
     14 C13         4.0018   -1.7259    0.5156 C.2       1 <0>         0.5745
     15 O1          5.1344   -2.1260    0.3286 O.2       1 <0>        -0.5350
     16 N2          3.6392   -0.6252   -0.1219 N.am      1 <0>        -0.6516
     17 C14         0.8096   -4.9942    3.9700 C.2       1 <0>         0.4751
     18 O2         -0.4910   -5.2194    3.6840 O.3       1 <0>        -0.6108
     19 N3          1.3558   -5.5520    5.0257 N.2       1 <0>        -0.6367
     20 C15         0.6165   -6.3516    5.8262 C.2       1 <0>         0.5711
     21 N4         -0.6541   -6.6398    5.6439 N.2       1 <0>        -0.5024
     22 C16        -1.0778   -7.4661    6.6293 C.ar      1 <0>         0.0874
     23 C17        -2.2967   -8.0757    6.9317 C.ar      1 <0>         0.1222
     24 N5         -2.4067   -8.8503    7.9909 N.ar      1 <0>        -0.4343
     25 C18        -1.3915   -9.0857    8.8046 C.ar      1 <0>         0.0545
     26 C19        -0.1508   -8.5252    8.5821 C.ar      1 <0>        -0.1033
     27 C20         0.0232   -7.6991    7.4790 C.ar      1 <0>         0.1095
     28 N6          1.0790   -6.9907    6.9495 N.pl3     1 <0>        -0.5925
     29 H1         -0.9590    1.9056    0.0260 H         1 <0>         0.1300
     30 H2          1.1554    3.1647    0.0203 H         1 <0>         0.1304
     31 H3          3.3033    1.9721   -0.0417 H         1 <0>         0.1308
     32 H4         -0.9264   -0.5557    0.0050 H         1 <0>         0.1327
     33 H5          0.8022   -2.6092   -0.6460 H         1 <0>         0.4120
     34 H6         -0.0027   -3.7053    1.7455 H         1 <0>         0.1434
     35 H7          3.4080   -4.3330    4.2688 H         1 <0>         0.1456
     36 H8          4.7647   -2.9120    2.8034 H         1 <0>         0.1362
     37 H9          4.3023   -0.2263   -0.7067 H         1 <0>         0.4082
     38 H10         1.9807   -6.9499    7.3049 H         1 <0>         0.4331
     39 H11        -3.1530   -7.9111    6.2946 H         1 <0>         0.2010
     40 H12        -1.5365   -9.7287    9.6600 H         1 <0>         0.1962
     41 H13         0.6707   -8.7246    9.2541 H         1 <0>         0.1662
     42 H14        -3.2636   -9.2630    8.1812 H         1 <0>         0.4429
@<TRIPOS>BOND
     1    1    6 ar
     2    1    2 ar
     3    1   29 1
     4    2    3 ar
     5    2   30 1
     6    3    4 ar
     7    3   31 1
     8    4   16 1
     9    4    5 ar
    10    5    6 ar
    11    5    7 1
    12    6   32 1
    13    7    8 1
    14    7   33 1
    15    8   13 ar
    16    8    9 ar
    17    9   10 ar
    18    9   34 1
    19   10   11 ar
    20   10   17 1
    21   11   12 ar
    22   11   35 1
    23   12   13 ar
    24   12   36 1
    25   13   14 1
    26   14   15 2
    27   14   16 am
    28   16   37 1
    29   17   18 1
    30   17   19 2
    31   19   20 1
    32   20   21 2
    33   20   28 1
    34   21   22 1
    35   22   23 ar
    36   22   27 ar
    37   23   24 ar
    38   23   39 1
    39   24   25 ar
    40   24   42 1
    41   25   26 ar
    42   25   40 1
    43   26   27 ar
    44   26   41 1
    45   27   28 1
    46   28   38 1
@<TRIPOS>MOLECULE
CHEMBL251862
   87    90     0     0     0
SMALL
USER_CHARGES

@<TRIPOS>ATOM
      1 C1         -0.0188    1.5256   -0.0382 C.3       1 <0>        -0.1680
      2 C2          0.0020   -0.0042   -0.0285 C.3       1 <0>         0.1213
      3 N1         -1.3724   -0.5112   -0.0180 N.pl3     1 <0>        -0.7459
      4 C3         -1.6090   -1.8881   -0.0079 C.ar      1 <0>         0.2385
      5 C4         -0.5418   -2.7745   -0.0020 C.ar      1 <0>        -0.1945
      6 C5         -0.7792   -4.1488    0.0086 C.ar      1 <0>        -0.0652
      7 C6         -2.0898   -4.6271    0.0131 C.ar      1 <0>        -0.1519
      8 C7         -3.1516   -3.7355    0.0072 C.ar      1 <0>         0.2102
      9 C8         -2.9119   -2.3678    0.0020 C.ar      1 <0>        -0.2103
     10 N2         -4.4665   -4.2146    0.0113 N.am      1 <0>        -0.5619
     11 C9         -5.6575   -3.3639    0.1202 C.3       1 <0>         0.0939
     12 C10        -6.8369   -4.2438   -0.3503 C.3       1 <0>        -0.1323
     13 C11        -6.3058   -5.6661   -0.0570 C.3       1 <0>        -0.1544
     14 C12        -4.8012   -5.5126   -0.0897 C.2       1 <0>         0.5151
     15 O1         -4.0116   -6.4277   -0.1899 O.2       1 <0>        -0.4976
     16 C13         0.3557   -5.0969    0.0144 C.2       1 <0>         0.5644
     17 O2          0.1472   -6.2943    0.0236 O.2       1 <0>        -0.4961
     18 N3          1.6211   -4.6332    0.0095 N.am      1 <0>        -0.7252
     19 C14         2.7454   -5.5724    0.0153 C.3       1 <0>         0.1279
     20 H1          2.4852   -6.4469    0.6116 H         1 <0>         0.1099
     21 C15         3.0546   -6.0066   -1.4188 C.3       1 <0>        -0.1010
     22 C16         1.8880   -6.7847   -1.9707 C.ar      1 <0>        -0.0804
     23 C17         1.8327   -8.1562   -1.8074 C.ar      1 <0>        -0.1076
     24 C18         0.7626   -8.8700   -2.3136 C.ar      1 <0>        -0.1112
     25 C19        -0.2525   -8.2121   -2.9827 C.ar      1 <0>        -0.1071
     26 C20        -0.1977   -6.8404   -3.1452 C.ar      1 <0>        -0.1053
     27 C21         0.8703   -6.1262   -2.6353 C.ar      1 <0>        -0.1043
     28 C22         3.9757   -4.8915    0.6185 C.3       1 <0>         0.0764
     29 H2          3.7284   -4.5036    1.6066 H         1 <0>         0.1351
     30 C23         5.1130   -5.9077    0.7395 C.3       1 <0>        -0.0499
     31 N4          6.2531   -5.2871    1.4273 N.4       1 <0>        -0.4891
     32 C24         7.3451   -6.2628    1.5436 C.3       1 <0>         0.0036
     33 H3          6.9774   -7.1626    2.0368 H         1 <0>         0.1667
     34 C25         7.8602   -6.6204    0.1480 C.3       1 <0>        -0.1823
     35 C26         8.4663   -5.6674    2.3556 C.2       1 <0>         0.5029
     36 O3          8.3657   -4.5412    2.7943 O.2       1 <0>        -0.5238
     37 N5          9.5810   -6.3865    2.5943 N.am      1 <0>        -0.6976
     38 C27        10.6710   -5.8077    3.3837 C.3       1 <0>         0.1415
     39 C28        11.5775   -4.9794    2.4710 C.3       1 <0>        -0.1279
     40 C29        12.7159   -4.3749    3.2955 C.3       1 <0>        -0.1193
     41 C30        13.5306   -5.4980    3.9404 C.3       1 <0>        -0.1261
     42 C31        12.6241   -6.3264    4.8530 C.3       1 <0>        -0.1182
     43 C32        11.4857   -6.9308    4.0286 C.3       1 <0>        -0.1279
     44 O4          4.3867   -3.8150   -0.2267 O.3       1 <0>        -0.5474
     45 H4          1.0038    1.9029   -0.0460 H         1 <0>         0.0747
     46 H5         -0.5422    1.8762   -0.9278 H         1 <0>         0.0638
     47 H6         -0.5328    1.8877    0.8521 H         1 <0>         0.0635
     48 H7          0.5161   -0.3663   -0.9189 H         1 <0>         0.0590
     49 H8          0.5254   -0.3548    0.8610 H         1 <0>         0.0582
     50 H9         -2.1182    0.1091   -0.0181 H         1 <0>         0.4026
     51 H10         0.4715   -2.4008   -0.0059 H         1 <0>         0.1214
     52 H11        -2.2771   -5.6907    0.0210 H         1 <0>         0.1669
     53 H12        -3.7409   -1.6756    0.0015 H         1 <0>         0.1294
     54 H13        -5.8069   -3.0547    1.1547 H         1 <0>         0.0841
     55 H14        -5.5576   -2.4908   -0.5246 H         1 <0>         0.0879
     56 H15        -7.7352   -4.0353    0.2308 H         1 <0>         0.0995
     57 H16        -7.0233   -4.1090   -1.4158 H         1 <0>         0.0878
     58 H17        -6.6375   -6.0021    0.9254 H         1 <0>         0.1123
     59 H18        -6.6324   -6.3621   -0.8296 H         1 <0>         0.1100
     60 H19         1.7875   -3.6776    0.0022 H         1 <0>         0.4053
     61 H20         3.2279   -5.1250   -2.0360 H         1 <0>         0.0817
     62 H21         3.9454   -6.6347   -1.4242 H         1 <0>         0.0776
     63 H22         2.6258   -8.6702   -1.2846 H         1 <0>         0.1109
     64 H23         0.7197   -9.9416   -2.1866 H         1 <0>         0.1190
     65 H24        -1.0883   -8.7698   -3.3788 H         1 <0>         0.1195
     66 H25        -0.9906   -6.3265   -3.6682 H         1 <0>         0.1163
     67 H26         0.9113   -5.0541   -2.7590 H         1 <0>         0.1096
     68 H27         4.7701   -6.7705    1.3105 H         1 <0>         0.1506
     69 H28         5.4203   -6.2294   -0.2555 H         1 <0>         0.1448
     70 H29         6.5705   -4.4884    0.8988 H         1 <0>         0.4371
     71 H30         8.6704   -7.3444    0.2342 H         1 <0>         0.1120
     72 H31         7.0492   -7.0510   -0.4393 H         1 <0>         0.0972
     73 H32         8.2279   -5.7206   -0.3452 H         1 <0>         0.0916
     74 H33         9.6615   -7.2872    2.2434 H         1 <0>         0.4087
     75 H34        10.2558   -5.1672    4.1617 H         1 <0>         0.0973
     76 H35        11.9928   -5.6199    1.6930 H         1 <0>         0.0680
     77 H36        10.9971   -4.1793    2.0116 H         1 <0>         0.0662
     78 H37        13.3617   -3.7848    2.6453 H         1 <0>         0.0712
     79 H38        12.3007   -3.7344    4.0735 H         1 <0>         0.0668
     80 H39        13.9459   -6.1385    3.1623 H         1 <0>         0.0654
     81 H40        14.3416   -5.0674    4.5277 H         1 <0>         0.0706
     82 H41        13.2045   -7.1264    5.3124 H         1 <0>         0.0744
     83 H42        12.2088   -5.6858    5.6310 H         1 <0>         0.0678
     84 H43        10.8399   -7.5209    4.6788 H         1 <0>         0.0719
     85 H44        11.9009   -7.5713    3.2505 H         1 <0>         0.0727
     86 H45         4.6226   -4.0875   -1.1240 H         1 <0>         0.3908
     87 H46         5.9686   -4.9893    2.3485 H         1 <0>         0.4365
@<TRIPOS>BOND
     1    1    2 1
     2    1   45 1
     3    1   46 1
     4    1   47 1
     5    2    3 1
     6    2   48 1
     7    2   49 1
     8    3    4 1
     9    3   50 1
    10    4    9 ar
    11    4    5 ar
    12    5    6 ar
    13    5   51 1
    14    6    7 ar
    15    6   16 1
    16    7    8 ar
    17    7   52 1
    18    8    9 ar
    19    8   10 1
    20    9   53 1
    21   10   14 am
    22   10   11 1
    23   11   12 1
    24   11   54 1
    25   11   55 1
    26   12   13 1
    27   12   56 1
    28   12   57 1
    29   13   14 1
    30   13   58 1
    31   13   59 1
    32   14   15 2
    33   16   17 2
    34   16   18 am
    35   18   19 1
    36   18   60 1
    37   19   20 1
    38   19   21 1
    39   19   28 1
    40   21   22 1
    41   21   61 1
    42   21   62 1
    43   22   27 ar
    44   22   23 ar
    45   23   24 ar
    46   23   63 1
    47   24   25 ar
    48   24   64 1
    49   25   26 ar
    50   25   65 1
    51   26   27 ar
    52   26   66 1
    53   27   67 1
    54   28   29 1
    55   28   30 1
    56   28   44 1
    57   30   31 1
    58   30   68 1
    59   30   69 1
    60   31   32 1
    61   31   70 1
    62   31   87 1
    63   32   33 1
    64   32   34 1
    65   32   35 1
    66   34   71 1
    67   34   72 1
    68   34   73 1
    69   35   36 2
    70   35   37 am
    71   37   38 1
    72   37   74 1
    73   38   43 1
    74   38   39 1
    75   38   75 1
    76   39   40 1
    77   39   76 1
    78   39   77 1
    79   40   41 1
    80   40   78 1
    81   40   79 1
    82   41   42 1
    83   41   80 1
    84   41   81 1
    85   42   43 1
    86   42   82 1
    87   42   83 1
    88   43   84 1
    89   43   85 1
    90   44   86 1
@<TRIPOS>MOLECULE
CHEMBL447120
   78    82     0     0     0
SMALL
USER_CHARGES

@<TRIPOS>ATOM
      1 C1         -0.0187    1.5258    0.0104 C.3       1 <0>        -0.1486
      2 C2          0.0021   -0.0041    0.0020 C.3       1 <0>        -0.0526
      3 C3         -1.4117   -0.5257    0.0127 C.2       1 <0>        -0.1710
      4 C4         -2.1262   -0.8920    1.0850 C.2       1 <0>         0.0165
      5 O1         -3.3487   -1.3050    0.7085 O.3       1 <0>        -0.1809
      6 C5         -3.4920   -1.2284   -0.6295 C.ar      1 <0>         0.0870
      7 C6         -2.2861   -0.7288   -1.1499 C.ar      1 <0>        -0.1230
      8 C7         -2.1383   -0.5350   -2.5200 C.ar      1 <0>        -0.0271
      9 C8         -3.1947   -0.8363   -3.3753 C.ar      1 <0>        -0.1477
     10 C9         -4.3973   -1.3312   -2.8561 C.ar      1 <0>        -0.0288
     11 C10        -4.5436   -1.5311   -1.4978 C.ar      1 <0>         0.1570
     12 N1         -5.7515   -2.0248   -0.9890 N.am      1 <0>        -0.5835
     13 C11        -6.8845   -1.1845   -0.5837 C.3       1 <0>         0.1036
     14 C12        -8.0998   -2.1358   -0.5163 C.3       1 <0>        -0.1310
     15 C13        -7.4189   -3.4991   -0.2537 C.3       1 <0>        -0.1526
     16 C14        -6.0242   -3.3295   -0.8145 C.2       1 <0>         0.5227
     17 O2         -5.2619   -4.2384   -1.0674 O.2       1 <0>        -0.5157
     18 C15        -3.0469   -0.6333   -4.8309 C.2       1 <0>         0.5718
     19 O3         -3.9692   -0.8963   -5.5780 O.2       1 <0>        -0.5019
     20 N2         -1.8897   -0.1565   -5.3309 N.am      1 <0>        -0.7255
     21 C16        -1.7432    0.0448   -6.7745 C.3       1 <0>         0.1279
     22 H1         -2.2903   -0.7330   -7.3072 H         1 <0>         0.1109
     23 C17        -2.3034    1.4160   -7.1577 C.3       1 <0>        -0.1019
     24 C18        -3.7880    1.4419   -6.9002 C.ar      1 <0>        -0.0791
     25 C19        -4.6686    1.0557   -7.8933 C.ar      1 <0>        -0.1061
     26 C20        -6.0304    1.0794   -7.6571 C.ar      1 <0>        -0.1109
     27 C21        -6.5116    1.4890   -6.4276 C.ar      1 <0>        -0.1101
     28 C22        -5.6310    1.8743   -5.4342 C.ar      1 <0>        -0.1096
     29 C23        -4.2690    1.8465   -5.6690 C.ar      1 <0>        -0.1056
     30 C24        -0.2619   -0.0244   -7.1514 C.3       1 <0>         0.0742
     31 H2          0.1591   -0.9660   -6.7989 H         1 <0>         0.1346
     32 C25        -0.1181    0.0611   -8.6722 C.3       1 <0>        -0.0477
     33 N3          1.2914   -0.1252   -9.0420 N.4       1 <0>        -0.5053
     34 C26         1.4295   -0.0432  -10.5022 C.3       1 <0>         0.0467
     35 C27         2.8754   -0.2343  -10.8815 C.ar      1 <0>        -0.1685
     36 C28         3.7179    0.8585  -10.9668 C.ar      1 <0>        -0.0602
     37 C29         5.0440    0.6832  -11.3147 C.ar      1 <0>        -0.1108
     38 C30         5.5281   -0.5850  -11.5770 C.ar      1 <0>        -0.0358
     39 C31         4.6860   -1.6776  -11.4908 C.ar      1 <0>        -0.1744
     40 C32         3.3606   -1.5027  -11.1386 C.ar      1 <0>        -0.0436
     41 C33         5.2136   -3.0599  -11.7771 C.3       1 <0>         0.5060
     42 F1          6.5713   -2.9822  -12.1054 F         1 <0>        -0.1689
     43 F2          5.0531   -3.8643  -10.6438 F         1 <0>        -0.1727
     44 F3          4.5060   -3.6165  -12.8480 F         1 <0>        -0.1701
     45 O4          0.4353    1.0657   -6.5450 O.3       1 <0>        -0.5490
     46 H3          1.0039    1.9031    0.0027 H         1 <0>         0.0619
     47 H4         -0.5459    1.8868   -0.8726 H         1 <0>         0.0535
     48 H5         -0.5289    1.8773    0.9072 H         1 <0>         0.0581
     49 H6          0.5123   -0.3556   -0.8948 H         1 <0>         0.0733
     50 H7          0.5293   -0.3651    0.8851 H         1 <0>         0.0793
     51 H8         -1.7713   -0.8601    2.1046 H         1 <0>         0.2130
     52 H9         -1.2097   -0.1528   -2.9174 H         1 <0>         0.1320
     53 H10        -5.2143   -1.5632   -3.5233 H         1 <0>         0.1507
     54 H11        -6.6959   -0.7436    0.3951 H         1 <0>         0.0776
     55 H12        -7.0579   -0.4028   -1.3233 H         1 <0>         0.0831
     56 H13        -8.7616   -1.8654    0.3065 H         1 <0>         0.0979
     57 H14        -8.6404   -2.1457   -1.4627 H         1 <0>         0.0869
     58 H15        -7.3816   -3.7072    0.8156 H         1 <0>         0.1109
     59 H16        -7.9445   -4.2957   -0.7802 H         1 <0>         0.1085
     60 H17        -1.1538    0.0533   -4.7348 H         1 <0>         0.4055
     61 H18        -1.8174    2.1870   -6.5598 H         1 <0>         0.0823
     62 H19        -2.1147    1.6031   -8.2148 H         1 <0>         0.0798
     63 H20        -4.2927    0.7357   -8.8539 H         1 <0>         0.1122
     64 H21        -6.7184    0.7783   -8.4332 H         1 <0>         0.1198
     65 H22        -7.5756    1.5082   -6.2433 H         1 <0>         0.1201
     66 H23        -6.0070    2.1946   -4.4738 H         1 <0>         0.1174
     67 H24        -3.5808    2.1440   -4.8916 H         1 <0>         0.1103
     68 H25        -0.7220   -0.7173   -9.1386 H         1 <0>         0.1497
     69 H26        -0.4575    1.0385   -9.0149 H         1 <0>         0.1436
     70 H27         1.8504    0.5953   -8.6103 H         1 <0>         0.4328
     71 H28         0.8256   -0.8216  -10.9686 H         1 <0>         0.1435
     72 H29         1.0901    0.9342  -10.8449 H         1 <0>         0.1446
     73 H30         3.3398    1.8492  -10.7620 H         1 <0>         0.1436
     74 H31         5.7020    1.5370  -11.3821 H         1 <0>         0.1511
     75 H32         6.5641   -0.7219  -11.8495 H         1 <0>         0.1531
     76 H33         2.7035   -2.3569  -11.0676 H         1 <0>         0.1441
     77 H34         0.1129    1.9369   -6.8136 H         1 <0>         0.3915
     78 H35         1.6056   -1.0301   -8.7247 H         1 <0>         0.4298
@<TRIPOS>BOND
     1    1    2 1
     2    1   46 1
     3    1   47 1
     4    1   48 1
     5    2    3 1
     6    2   49 1
     7    2   50 1
     8    3    7 1
     9    3    4 2
    10    4    5 1
    11    4   51 1
    12    5    6 1
    13    6   11 ar
    14    6    7 ar
    15    7    8 ar
    16    8    9 ar
    17    8   52 1
    18    9   10 ar
    19    9   18 1
    20   10   11 ar
    21   10   53 1
    22   11   12 1
    23   12   16 am
    24   12   13 1
    25   13   14 1
    26   13   54 1
    27   13   55 1
    28   14   15 1
    29   14   56 1
    30   14   57 1
    31   15   16 1
    32   15   58 1
    33   15   59 1
    34   16   17 2
    35   18   19 2
    36   18   20 am
    37   20   21 1
    38   20   60 1
    39   21   22 1
    40   21   23 1
    41   21   30 1
    42   23   24 1
    43   23   61 1
    44   23   62 1
    45   24   29 ar
    46   24   25 ar
    47   25   26 ar
    48   25   63 1
    49   26   27 ar
    50   26   64 1
    51   27   28 ar
    52   27   65 1
    53   28   29 ar
    54   28   66 1
    55   29   67 1
    56   30   31 1
    57   30   32 1
    58   30   45 1
    59   32   33 1
    60   32   68 1
    61   32   69 1
    62   33   34 1
    63   33   70 1
    64   33   78 1
    65   34   35 1
    66   34   71 1
    67   34   72 1
    68   35   40 ar
    69   35   36 ar
    70   36   37 ar
    71   36   73 1
    72   37   38 ar
    73   37   74 1
    74   38   39 ar
    75   38   75 1
    76   39   40 ar
    77   39   41 1
    78   40   76 1
    79   41   42 1
    80   41   43 1
    81   41   44 1
    82   45   77 1
@<TRIPOS>MOLECULE
CHEMBL1209285
   76    79     0     0     0
SMALL
USER_CHARGES

@<TRIPOS>ATOM
      1 C1         -0.5414    2.5620   -0.6783 C.3       1 <0>        -0.1823
      2 C2         -0.2638    1.0908   -0.8510 C.2       1 <0>         0.5122
      3 O1          0.1210    0.4316    0.0915 O.2       1 <0>        -0.5334
      4 N1         -0.4431    0.5078   -2.0528 N.am      1 <0>        -0.7318
      5 C3         -0.1732   -0.9224   -2.2207 C.3       1 <0>         0.1316
      6 H1         -0.3735   -1.2112   -3.2524 H         1 <0>         0.1058
      7 C4          1.2924   -1.2075   -1.8865 C.3       1 <0>        -0.0983
      8 C5          2.1800   -0.5140   -2.8877 C.ar      1 <0>        -0.0284
      9 C6          2.5525   -1.1657   -4.0481 C.ar      1 <0>        -0.1643
     10 C7          3.3684   -0.5297   -4.9686 C.ar      1 <0>         0.1398
     11 C8          3.8106    0.7594   -4.7264 C.ar      1 <0>        -0.1922
     12 C9          3.4365    1.4112   -3.5640 C.ar      1 <0>         0.1386
     13 C10         2.6162    0.7752   -2.6474 C.ar      1 <0>        -0.1580
     14 F1          3.8673    2.6694   -3.3263 F         1 <0>        -0.1260
     15 F2          3.7331   -1.1673   -6.1025 F         1 <0>        -0.1256
     16 C11        -1.0759   -1.7253   -1.2819 C.3       1 <0>         0.0690
     17 H2         -0.8757   -1.4365   -0.2501 H         1 <0>         0.1456
     18 C12        -2.5415   -1.4402   -1.6161 C.3       1 <0>        -0.0568
     19 N2         -3.4067   -2.1162   -0.6401 N.4       1 <0>        -0.4985
     20 C13        -4.8124   -1.9448   -1.0306 C.3       1 <0>         0.1168
     21 C14        -5.1484   -0.4531   -1.0852 C.3       1 <0>        -0.1368
     22 C15        -4.9222    0.1714    0.2931 C.3       1 <0>        -0.1350
     23 C16        -5.8241   -0.5173    1.3193 C.3       1 <0>        -0.1320
     24 C17        -5.4882   -2.0090    1.3739 C.3       1 <0>        -0.1363
     25 C18        -5.7144   -2.6335   -0.0044 C.3       1 <0>        -0.1307
     26 C19        -5.0352   -2.5599   -2.3882 C.ar      1 <0>        -0.1132
     27 C20        -4.2283   -3.5980   -2.8171 C.ar      1 <0>        -0.1361
     28 C21        -4.4298   -4.1654   -4.0617 C.ar      1 <0>        -0.0850
     29 C22        -5.4383   -3.6966   -4.8810 C.ar      1 <0>        -0.0852
     30 C23        -6.2501   -2.6544   -4.4534 C.ar      1 <0>         0.1591
     31 C24        -6.0485   -2.0902   -3.2003 C.ar      1 <0>        -0.0925
     32 N3         -7.2723   -2.1770   -5.2811 N.am      1 <0>        -0.5663
     33 C25        -8.6481   -2.3893   -4.8407 C.3       1 <0>         0.1142
     34 C26        -9.5834   -2.5432   -6.0428 C.3       1 <0>        -0.1825
     35 C27       -10.0606   -1.1561   -6.4835 C.3       1 <0>         0.0443
     36 O2         -8.9432   -0.3619   -6.8671 O.3       1 <0>        -0.3601
     37 C28        -7.8933   -1.1347   -7.4587 C.3       1 <0>         0.0422
     38 C29        -6.9134   -1.5609   -6.4042 C.2       1 <0>         0.5037
     39 O3         -5.7355   -1.3368   -6.5871 O.2       1 <0>        -0.5236
     40 O4         -0.8127   -3.1203   -1.4456 O.3       1 <0>        -0.5426
     41 H3          0.3658    3.1296   -0.8854 H         1 <0>         0.1025
     42 H4         -1.3267    2.8671   -1.3698 H         1 <0>         0.0835
     43 H5         -0.8640    2.7531    0.3451 H         1 <0>         0.0995
     44 H6         -0.7508    1.0350   -2.8066 H         1 <0>         0.4123
     45 H7          1.5154   -0.8376   -0.8857 H         1 <0>         0.1083
     46 H8          1.4714   -2.2820   -1.9250 H         1 <0>         0.1015
     47 H9          2.2073   -2.1715   -4.2370 H         1 <0>         0.1431
     48 H10         4.4472    1.2560   -5.4435 H         1 <0>         0.1523
     49 H11         2.3207    1.2852   -1.7425 H         1 <0>         0.1358
     50 H12        -2.7205   -0.3657   -1.5775 H         1 <0>         0.1417
     51 H13        -2.7645   -1.8101   -2.6168 H         1 <0>         0.1418
     52 H14        -3.1819   -3.0995   -0.6156 H         1 <0>         0.4277
     53 H15        -4.5058    0.0375   -1.8163 H         1 <0>         0.0900
     54 H16        -6.1914   -0.3260   -1.3749 H         1 <0>         0.1125
     55 H17        -3.8791    0.0442    0.5829 H         1 <0>         0.0574
     56 H18        -5.1615    1.2341    0.2542 H         1 <0>         0.0949
     57 H19        -5.6630   -0.0724    2.3013 H         1 <0>         0.0830
     58 H20        -6.8672   -0.3902    1.0296 H         1 <0>         0.0803
     59 H21        -4.4451   -2.1361    1.6636 H         1 <0>         0.0584
     60 H22        -6.1308   -2.4996    2.1050 H         1 <0>         0.0962
     61 H23        -6.7575   -2.5063   -0.2942 H         1 <0>         0.1129
     62 H24        -5.4751   -3.6962    0.0345 H         1 <0>         0.0918
     63 H25        -3.4389   -3.9661   -2.1785 H         1 <0>         0.1217
     64 H26        -3.7977   -4.9757   -4.3939 H         1 <0>         0.1422
     65 H27        -5.5949   -4.1399   -5.8533 H         1 <0>         0.1343
     66 H28        -6.6809   -1.2823   -2.8632 H         1 <0>         0.1371
     67 H29        -8.6949   -3.2920   -4.2316 H         1 <0>         0.0880
     68 H30        -8.9694   -1.5365   -4.2428 H         1 <0>         0.0777
     69 H31        -9.0480   -3.0222   -6.8626 H         1 <0>         0.0855
     70 H32       -10.4424   -3.1521   -5.7611 H         1 <0>         0.1065
     71 H33       -10.7401   -1.2584   -7.3296 H         1 <0>         0.0704
     72 H34       -10.5822   -0.6729   -5.6573 H         1 <0>         0.0986
     73 H35        -8.3194   -2.0160   -7.9382 H         1 <0>         0.0968
     74 H36        -7.3785   -0.5320   -8.2069 H         1 <0>         0.1296
     75 H37        -0.9699   -3.4477   -2.3418 H         1 <0>         0.3866
     76 H38        -3.2602   -1.7148    0.2740 H         1 <0>         0.4282
@<TRIPOS>BOND
     1    1    2 1
     2    1   41 1
     3    1   42 1
     4    1   43 1
     5    2    3 2
     6    2    4 am
     7    4    5 1
     8    4   44 1
     9    5    6 1
    10    5    7 1
    11    5   16 1
    12    7    8 1
    13    7   45 1
    14    7   46 1
    15    8   13 ar
    16    8    9 ar
    17    9   10 ar
    18    9   47 1
    19   10   11 ar
    20   10   15 1
    21   11   12 ar
    22   11   48 1
    23   12   13 ar
    24   12   14 1
    25   13   49 1
    26   16   17 1
    27   16   18 1
    28   16   40 1
    29   18   19 1
    30   18   50 1
    31   18   51 1
    32   19   20 1
    33   19   52 1
    34   19   76 1
    35   20   25 1
    36   20   21 1
    37   20   26 1
    38   21   22 1
    39   21   53 1
    40   21   54 1
    41   22   23 1
    42   22   55 1
    43   22   56 1
    44   23   24 1
    45   23   57 1
    46   23   58 1
    47   24   25 1
    48   24   59 1
    49   24   60 1
    50   25   61 1
    51   25   62 1
    52   26   31 ar
    53   26   27 ar
    54   27   28 ar
    55   27   63 1
    56   28   29 ar
    57   28   64 1
    58   29   30 ar
    59   29   65 1
    60   30   31 ar
    61   30   32 1
    62   31   66 1
    63   32   38 am
    64   32   33 1
    65   33   34 1
    66   33   67 1
    67   33   68 1
    68   34   35 1
    69   34   69 1
    70   34   70 1
    71   35   36 1
    72   35   71 1
    73   35   72 1
    74   36   37 1
    75   37   38 1
    76   37   73 1
    77   37   74 1
    78   38   39 2
    79   40   75 1
@<TRIPOS>MOLECULE
CHEMBL562555
   81    85     0     0     0
SMALL
USER_CHARGES

@<TRIPOS>ATOM
      1 C1         -0.0187    1.5258    0.0104 C.3       1 <0>        -0.1471
      2 C2          0.0021   -0.0041    0.0020 C.3       1 <0>        -0.0509
      3 C3         -1.4117   -0.5257    0.0127 C.2       1 <0>        -0.1422
      4 C4         -2.1213   -0.8910    1.0927 C.2       1 <0>         0.0428
      5 N1         -3.3688   -1.3419    0.7104 N.pl3     1 <0>        -0.4817
      6 C5         -3.5015   -1.1636   -0.6254 C.ar      1 <0>         0.1171
      7 C6         -2.2770   -0.7252   -1.1525 C.ar      1 <0>        -0.1032
      8 C7         -2.1259   -0.5885   -2.5301 C.ar      1 <0>        -0.0177
      9 C8         -3.2182   -0.7930   -3.3687 C.ar      1 <0>        -0.1612
     10 C9         -4.4735   -1.1182   -2.8288 C.ar      1 <0>        -0.0230
     11 C10        -4.6189   -1.2816   -1.4765 C.ar      1 <0>         0.1143
     12 N2         -5.8607   -1.5105   -0.8698 N.pl3     1 <0>        -0.9499
     13 S1         -6.1668   -2.9434   -0.1411 S.o2      1 <0>         2.6137
     14 O1         -6.1048   -3.8904   -1.1987 O.2       1 <0>        -0.9392
     15 O2         -7.3895   -2.7266    0.5498 O.2       1 <0>        -0.9444
     16 C11        -4.8512   -3.2816    1.0525 C.3       1 <0>        -0.6647
     17 C12        -4.3061   -1.9797    1.6583 C.3       1 <0>         0.1384
     18 C13        -6.8869   -0.4651   -0.8875 C.3       1 <0>         0.1127
     19 C14        -7.6754   -0.5465   -2.1961 C.3       1 <0>        -0.1761
     20 C15        -3.0566   -0.6672   -4.8311 C.2       1 <0>         0.5708
     21 O3         -4.0090   -0.8453   -5.5654 O.2       1 <0>        -0.5049
     22 N3         -1.8533   -0.3549   -5.3517 N.am      1 <0>        -0.7269
     23 C16        -1.6930   -0.2300   -6.8025 C.3       1 <0>         0.1285
     24 H1         -2.6017    0.1901   -7.2337 H         1 <0>         0.1098
     25 C17        -1.4327   -1.6110   -7.4076 C.3       1 <0>        -0.1012
     26 C18        -2.6477   -2.4813   -7.2141 C.ar      1 <0>        -0.0799
     27 C19        -2.7705   -3.2533   -6.0740 C.ar      1 <0>        -0.1048
     28 C20        -3.8850   -4.0516   -5.8966 C.ar      1 <0>        -0.1063
     29 C21        -4.8769   -4.0776   -6.8591 C.ar      1 <0>        -0.1091
     30 C22        -4.7545   -3.3050   -7.9988 C.ar      1 <0>        -0.1115
     31 C23        -3.6421   -2.5034   -8.1742 C.ar      1 <0>        -0.1079
     32 C24        -0.5104    0.6915   -7.1075 C.3       1 <0>         0.0761
     33 H2         -0.6544    1.6466   -6.6024 H         1 <0>         0.1347
     34 C25        -0.4194    0.9218   -8.6174 C.3       1 <0>        -0.0514
     35 N4          0.7160    1.8066   -8.9102 N.4       1 <0>        -0.5001
     36 C26         0.8034    2.0277  -10.3598 C.3       1 <0>         0.0224
     37 C27         1.1407    0.7077  -11.0600 C.3       1 <0>        -0.1797
     38 C28         1.3072    0.9629  -12.5603 C.3       1 <0>         0.0616
     39 O4          2.3271    1.9427  -12.7652 O.3       1 <0>        -0.3675
     40 C29         2.0441    3.2121  -12.1730 C.3       1 <0>         0.0619
     41 C30         1.9073    3.0472  -10.6571 C.3       1 <0>        -0.1791
     42 O5          0.6978    0.0851   -6.6445 O.3       1 <0>        -0.5499
     43 H3          1.0039    1.9031    0.0027 H         1 <0>         0.0579
     44 H4         -0.5459    1.8868   -0.8726 H         1 <0>         0.0528
     45 H5         -0.5289    1.8773    0.9072 H         1 <0>         0.0558
     46 H6          0.5123   -0.3556   -0.8948 H         1 <0>         0.0712
     47 H7          0.5293   -0.3651    0.8851 H         1 <0>         0.0740
     48 H8         -1.7674   -0.8398    2.1118 H         1 <0>         0.1756
     49 H9         -1.1648   -0.3252   -2.9465 H         1 <0>         0.1281
     50 H10        -5.3242   -1.2457   -3.4819 H         1 <0>         0.1490
     51 H11        -5.2458   -3.9095    1.8514 H         1 <0>         0.1637
     52 H12        -4.0405   -3.8101    0.5510 H         1 <0>         0.1460
     53 H13        -3.7843   -2.2035    2.5887 H         1 <0>         0.1231
     54 H14        -5.1337   -1.3002    1.8622 H         1 <0>         0.0968
     55 H15        -7.5645   -0.6069   -0.0455 H         1 <0>         0.1054
     56 H16        -6.4110    0.5125   -0.8102 H         1 <0>         0.0837
     57 H17        -8.4389    0.2313   -2.2092 H         1 <0>         0.0757
     58 H18        -6.9978   -0.4047   -3.0380 H         1 <0>         0.0639
     59 H19        -8.1513   -1.5241   -2.2733 H         1 <0>         0.0606
     60 H20        -1.0935   -0.2128   -4.7658 H         1 <0>         0.4049
     61 H21        -1.2256   -1.5078   -8.4727 H         1 <0>         0.0768
     62 H22        -0.5757   -2.0685   -6.9134 H         1 <0>         0.0816
     63 H23        -1.9956   -3.2330   -5.3221 H         1 <0>         0.1103
     64 H24        -3.9806   -4.6553   -5.0062 H         1 <0>         0.1195
     65 H25        -5.7473   -4.7019   -6.7208 H         1 <0>         0.1203
     66 H26        -5.5293   -3.3256   -8.7509 H         1 <0>         0.1188
     67 H27        -3.5482   -1.8969   -9.0629 H         1 <0>         0.1104
     68 H28        -0.2755   -0.0333   -9.1225 H         1 <0>         0.1417
     69 H29        -1.3411    1.3843   -8.9706 H         1 <0>         0.1481
     70 H30         0.5828    2.6907   -8.4426 H         1 <0>         0.4300
     71 H31        -0.1503    2.4046  -10.7293 H         1 <0>         0.1424
     72 H32         2.0691    0.3066  -10.6536 H         1 <0>         0.0985
     73 H33         0.3331   -0.0065  -10.8995 H         1 <0>         0.0992
     74 H34         1.5893    0.0350  -13.0578 H         1 <0>         0.1171
     75 H35         0.3662    1.3257  -12.9740 H         1 <0>         0.0666
     76 H36         2.8572    3.9044  -12.3914 H         1 <0>         0.1176
     77 H37         1.1128    3.6043  -12.5815 H         1 <0>         0.0667
     78 H38         1.6479    4.0061  -10.2084 H         1 <0>         0.1019
     79 H39         2.8512    2.6934  -10.2425 H         1 <0>         0.0982
     80 H40         0.8900   -0.7703   -7.0525 H         1 <0>         0.3913
     81 H41         1.5692    1.3784   -8.5832 H         1 <0>         0.4313
@<TRIPOS>BOND
     1    1    2 1
     2    1   43 1
     3    1   44 1
     4    1   45 1
     5    2    3 1
     6    2   46 1
     7    2   47 1
     8    3    7 1
     9    3    4 2
    10    4    5 1
    11    4   48 1
    12    5   17 1
    13    5    6 1
    14    6   11 ar
    15    6    7 ar
    16    7    8 ar
    17    8    9 ar
    18    8   49 1
    19    9   10 ar
    20    9   20 1
    21   10   11 ar
    22   10   50 1
    23   11   12 1
    24   12   13 1
    25   12   18 1
    26   13   14 2
    27   13   15 2
    28   13   16 1
    29   16   17 1
    30   16   51 1
    31   16   52 1
    32   17   53 1
    33   17   54 1
    34   18   19 1
    35   18   55 1
    36   18   56 1
    37   19   57 1
    38   19   58 1
    39   19   59 1
    40   20   21 2
    41   20   22 am
    42   22   23 1
    43   22   60 1
    44   23   24 1
    45   23   25 1
    46   23   32 1
    47   25   26 1
    48   25   61 1
    49   25   62 1
    50   26   31 ar
    51   26   27 ar
    52   27   28 ar
    53   27   63 1
    54   28   29 ar
    55   28   64 1
    56   29   30 ar
    57   29   65 1
    58   30   31 ar
    59   30   66 1
    60   31   67 1
    61   32   33 1
    62   32   34 1
    63   32   42 1
    64   34   35 1
    65   34   68 1
    66   34   69 1
    67   35   36 1
    68   35   70 1
    69   35   81 1
    70   36   41 1
    71   36   37 1
    72   36   71 1
    73   37   38 1
    74   37   72 1
    75   37   73 1
    76   38   39 1
    77   38   74 1
    78   38   75 1
    79   39   40 1
    80   40   41 1
    81   40   76 1
    82   40   77 1
    83   41   78 1
    84   41   79 1
    85   42   80 1
@<TRIPOS>MOLECULE
CHEMBL1091592
   54    58     0     0     0
SMALL
USER_CHARGES

@<TRIPOS>ATOM
      1 C1          0.3916    1.8157   -0.0393 C.ar      1 <0>        -0.1118
      2 C2          1.0158    2.3260   -1.1641 C.ar      1 <0>        -0.1079
      3 C3          1.7230    1.4904   -2.0097 C.ar      1 <0>        -0.1120
      4 C4          1.8101    0.1397   -1.7363 C.ar      1 <0>        -0.0083
      5 C5          1.1821   -0.3815   -0.6023 C.ar      1 <0>         0.0160
      6 C6          0.4705    0.4686    0.2465 C.ar      1 <0>        -0.1043
      7 C7          1.2701   -1.8257   -0.3030 C.2       1 <0>         0.0758
      8 C8          2.4154   -2.5665   -0.2610 C.2       1 <0>        -0.1643
      9 C9          2.0581   -3.8815    0.0569 C.2       1 <0>        -0.1667
     10 C10         0.7016   -3.9178    0.2026 C.2       1 <0>         0.0548
     11 N1          0.2150   -2.6537   -0.0131 N.pl3     1 <0>        -0.4178
     12 C11        -1.1933   -2.2555    0.0521 C.3       1 <0>         0.1451
     13 C12        -1.7777   -2.2469   -1.3370 C.ar      1 <0>         0.1526
     14 C13        -2.9473   -2.9361   -1.5885 C.ar      1 <0>        -0.2283
     15 C14        -3.4812   -2.9247   -2.8700 C.ar      1 <0>        -0.0277
     16 C15        -2.8165   -2.2176   -3.8559 C.ar      1 <0>        -0.2340
     17 C16        -1.6425   -1.5458   -3.5317 C.ar      1 <0>         0.4128
     18 N2         -1.1679   -1.5763   -2.2958 N.ar      1 <0>        -0.5124
     19 N3         -0.9641   -0.8317   -4.5127 N.pl3     1 <0>        -0.8484
     20 C17        -0.1027   -5.1107    0.5390 C.ar      1 <0>        -0.0089
     21 C18        -1.4173   -5.2207    0.0810 C.ar      1 <0>        -0.1240
     22 C19        -2.1641   -6.3354    0.3967 C.ar      1 <0>        -0.1082
     23 C20        -1.6109   -7.3482    1.1694 C.ar      1 <0>         0.0943
     24 C21        -0.3039   -7.2428    1.6268 C.ar      1 <0>        -0.1081
     25 C22         0.4516   -6.1340    1.3108 C.ar      1 <0>        -0.0872
     26 O1         -2.3507   -8.4451    1.4791 O.3       1 <0>        -0.2495
     27 C23        -2.5438   -9.3769    0.5121 C.ar      1 <0>         0.3139
     28 C24        -3.3828  -10.4573    0.7553 C.ar      1 <0>        -0.1852
     29 C25        -3.5712  -11.4007   -0.2393 C.ar      1 <0>        -0.0417
     30 C26        -2.9104  -11.2292   -1.4482 C.ar      1 <0>        -0.2067
     31 C27        -2.0915  -10.1312   -1.6207 C.ar      1 <0>         0.1388
     32 N4         -1.9357   -9.2453   -0.6552 N.ar      1 <0>        -0.5258
     33 Cl1         2.6970   -0.9081   -2.7990 Cl        1 <0>        -0.0586
     34 H1         -0.1551    2.4747    0.6190 H         1 <0>         0.1278
     35 H2          0.9502    3.3815   -1.3829 H         1 <0>         0.1300
     36 H3          2.2078    1.8952   -2.8858 H         1 <0>         0.1328
     37 H4         -0.0170    0.0723    1.1249 H         1 <0>         0.1248
     38 H5          3.4165   -2.2035   -0.4408 H         1 <0>         0.1388
     39 H6          2.7337   -4.7169    0.1669 H         1 <0>         0.1401
     40 H7         -1.7426   -2.9633    0.6729 H         1 <0>         0.1121
     41 H8         -1.2692   -1.2578    0.4844 H         1 <0>         0.1069
     42 H9         -3.4417   -3.4789   -0.7964 H         1 <0>         0.1331
     43 H10        -4.3947   -3.4562   -3.0924 H         1 <0>         0.1355
     44 H11        -3.2037   -2.1878   -4.8637 H         1 <0>         0.1313
     45 H12        -1.3099   -0.8035   -5.4185 H         1 <0>         0.4083
     46 H13        -0.1450   -0.3616   -4.2913 H         1 <0>         0.4040
     47 H14        -1.8485   -4.4332   -0.5193 H         1 <0>         0.1380
     48 H15        -3.1809   -6.4213    0.0429 H         1 <0>         0.1251
     49 H16         0.1226   -8.0326    2.2274 H         1 <0>         0.1324
     50 H17         1.4694   -6.0548    1.6632 H         1 <0>         0.1361
     51 H18        -3.8810  -10.5597    1.7081 H         1 <0>         0.1436
     52 H19        -4.2172  -12.2511   -0.0788 H         1 <0>         0.1438
     53 H20        -3.0354  -11.9473   -2.2452 H         1 <0>         0.1393
     54 H21        -1.5750   -9.9935   -2.5591 H         1 <0>         0.1600
@<TRIPOS>BOND
     1    1    6 ar
     2    1    2 ar
     3    1   34 1
     4    2    3 ar
     5    2   35 1
     6    3    4 ar
     7    3   36 1
     8    4    5 ar
     9    4   33 1
    10    5    6 ar
    11    5    7 1
    12    6   37 1
    13    7   11 1
    14    7    8 2
    15    8    9 1
    16    8   38 1
    17    9   10 2
    18    9   39 1
    19   10   11 1
    20   10   20 1
    21   11   12 1
    22   12   13 1
    23   12   40 1
    24   12   41 1
    25   13   18 ar
    26   13   14 ar
    27   14   15 ar
    28   14   42 1
    29   15   16 ar
    30   15   43 1
    31   16   17 ar
    32   16   44 1
    33   17   18 ar
    34   17   19 1
    35   19   45 1
    36   19   46 1
    37   20   25 ar
    38   20   21 ar
    39   21   22 ar
    40   21   47 1
    41   22   23 ar
    42   22   48 1
    43   23   24 ar
    44   23   26 1
    45   24   25 ar
    46   24   49 1
    47   25   50 1
    48   26   27 1
    49   27   32 ar
    50   27   28 ar
    51   28   29 ar
    52   28   51 1
    53   29   30 ar
    54   29   52 1
    55   30   31 ar
    56   30   53 1
    57   31   32 ar
    58   31   54 1
@<TRIPOS>MOLECULE
CHEMBL1091220
   54    58     0     0     0
SMALL
USER_CHARGES

@<TRIPOS>ATOM
      1 C1          1.6266    1.3392   -2.0455 C.ar      1 <0>        -0.1159
      2 C2          0.9668    2.1914   -1.1773 C.ar      1 <0>        -0.1047
      3 C3          0.4019    1.7021   -0.0133 C.ar      1 <0>        -0.1100
      4 C4          0.4930    0.3580    0.2897 C.ar      1 <0>        -0.0314
      5 C5          1.1573   -0.5075   -0.5829 C.ar      1 <0>         0.0116
      6 C6          1.7249   -0.0057   -1.7557 C.ar      1 <0>        -0.0701
      7 C7          1.2597   -1.9469   -0.2656 C.2       1 <0>         0.0828
      8 C8          2.4173   -2.6489   -0.0948 C.2       1 <0>        -0.1767
      9 C9          2.0710   -3.9741    0.1917 C.2       1 <0>        -0.1629
     10 C10         0.7086   -4.0550    0.1902 C.2       1 <0>         0.0471
     11 N1          0.2071   -2.8086   -0.0858 N.pl3     1 <0>        -0.4097
     12 C11        -1.2123   -2.4574   -0.1761 C.3       1 <0>         0.1347
     13 C12        -1.6378   -2.4533   -1.6217 C.ar      1 <0>         0.1541
     14 C13        -2.7335   -3.1973   -2.0117 C.ar      1 <0>        -0.2294
     15 C14        -3.1210   -3.1898   -3.3449 C.ar      1 <0>        -0.0267
     16 C15        -2.3894   -2.4311   -4.2409 C.ar      1 <0>        -0.2337
     17 C16        -1.2965   -1.7055   -3.7784 C.ar      1 <0>         0.4115
     18 N2         -0.9617   -1.7344   -2.4975 N.ar      1 <0>        -0.5162
     19 N3         -0.5521   -0.9393   -4.6678 N.pl3     1 <0>        -0.8491
     20 C17        -0.0879   -5.2728    0.4467 C.ar      1 <0>        -0.0034
     21 C18        -1.3628   -5.4052   -0.1076 C.ar      1 <0>        -0.1276
     22 C19        -2.1026   -6.5428    0.1342 C.ar      1 <0>        -0.1221
     23 C20        -1.5819   -7.5564    0.9282 C.ar      1 <0>         0.0734
     24 C21        -0.3143   -7.4286    1.4814 C.ar      1 <0>        -0.1108
     25 C22         0.4345   -6.2969    1.2394 C.ar      1 <0>        -0.0873
     26 O1         -2.3147   -8.6758    1.1648 O.3       1 <0>        -0.2500
     27 C23        -2.4037   -9.6013    0.1738 C.ar      1 <0>         0.0722
     28 C24        -1.6612   -9.4581   -0.9945 C.ar      1 <0>        -0.1500
     29 C25        -1.7853  -10.4274   -1.9763 C.ar      1 <0>        -0.1327
     30 C26        -2.6359  -11.4969   -1.7654 C.ar      1 <0>         0.0639
     31 N4         -3.3256  -11.6029   -0.6466 N.ar      1 <0>        -0.4474
     32 C27        -3.2317  -10.7055    0.3147 C.ar      1 <0>         0.0806
     33 Cl1        -0.2154   -0.2546    1.7514 Cl        1 <0>        -0.0639
     34 H1          2.0617    1.7276   -2.9545 H         1 <0>         0.1296
     35 H2          0.8930    3.2436   -1.4094 H         1 <0>         0.1309
     36 H3         -0.1113    2.3727    0.6600 H         1 <0>         0.1329
     37 H4          2.2399   -0.6693   -2.4346 H         1 <0>         0.1305
     38 H5          3.4196   -2.2534   -0.1679 H         1 <0>         0.1402
     39 H6          2.7577   -4.7861    0.3798 H         1 <0>         0.1409
     40 H7         -1.8034   -3.1892    0.3746 H         1 <0>         0.1105
     41 H8         -1.3695   -1.4673    0.2518 H         1 <0>         0.1151
     42 H9         -3.2833   -3.7796   -1.2871 H         1 <0>         0.1334
     43 H10        -3.9743   -3.7637   -3.6751 H         1 <0>         0.1367
     44 H11        -2.6628   -2.4028   -5.2853 H         1 <0>         0.1322
     45 H12        -0.7957   -0.9122   -5.6064 H         1 <0>         0.4091
     46 H13         0.2108   -0.4316   -4.3500 H         1 <0>         0.4034
     47 H14        -1.7687   -4.6171   -0.7246 H         1 <0>         0.1411
     48 H15        -3.0886   -6.6460   -0.2941 H         1 <0>         0.1317
     49 H16         0.0870   -8.2191    2.0982 H         1 <0>         0.1373
     50 H17         1.4218   -6.2003    1.6662 H         1 <0>         0.1390
     51 H18        -1.0045   -8.6118   -1.1325 H         1 <0>         0.1396
     52 H19        -1.2246  -10.3485   -2.8960 H         1 <0>         0.1394
     53 H20        -2.7371  -12.2554   -2.5274 H         1 <0>         0.1608
     54 H21        -3.8087  -10.8290    1.2192 H         1 <0>         0.1656
@<TRIPOS>BOND
     1    1    6 ar
     2    1    2 ar
     3    1   34 1
     4    2    3 ar
     5    2   35 1
     6    3    4 ar
     7    3   36 1
     8    4    5 ar
     9    4   33 1
    10    5    6 ar
    11    5    7 1
    12    6   37 1
    13    7   11 1
    14    7    8 2
    15    8    9 1
    16    8   38 1
    17    9   10 2
    18    9   39 1
    19   10   11 1
    20   10   20 1
    21   11   12 1
    22   12   13 1
    23   12   40 1
    24   12   41 1
    25   13   18 ar
    26   13   14 ar
    27   14   15 ar
    28   14   42 1
    29   15   16 ar
    30   15   43 1
    31   16   17 ar
    32   16   44 1
    33   17   18 ar
    34   17   19 1
    35   19   45 1
    36   19   46 1
    37   20   25 ar
    38   20   21 ar
    39   21   22 ar
    40   21   47 1
    41   22   23 ar
    42   22   48 1
    43   23   24 ar
    44   23   26 1
    45   24   25 ar
    46   24   49 1
    47   25   50 1
    48   26   27 1
    49   27   32 ar
    50   27   28 ar
    51   28   29 ar
    52   28   51 1
    53   29   30 ar
    54   29   52 1
    55   30   31 ar
    56   30   53 1
    57   31   32 ar
    58   32   54 1
@<TRIPOS>MOLECULE
CHEMBL370369
   71    73     0     0     0
SMALL
USER_CHARGES

@<TRIPOS>ATOM
      1 C1         -0.0187    1.5258    0.0104 C.3       1 <0>        -0.1443
      2 C2          0.0021   -0.0041    0.0020 C.3       1 <0>        -0.1348
      3 C3          0.7421   -0.5109    1.2415 C.3       1 <0>        -0.1449
      4 C4         -1.4117   -0.5257    0.0127 C.2       1 <0>         0.3979
      5 O1         -1.9705   -0.7412    1.0670 O.2       1 <0>        -0.4335
      6 C5         -2.1144   -0.7736   -1.2568 C.ar      1 <0>        -0.1398
      7 C6         -1.4703   -0.5313   -2.4717 C.ar      1 <0>        -0.0692
      8 C7         -2.1395   -0.7675   -3.6698 C.ar      1 <0>        -0.1116
      9 C8         -3.4514   -1.2453   -3.6532 C.ar      1 <0>        -0.0717
     10 C9         -4.0901   -1.4851   -2.4448 C.ar      1 <0>         0.1642
     11 C10        -3.4263   -1.2576   -1.2484 C.ar      1 <0>        -0.0636
     12 N1         -5.4033   -1.9629   -2.4334 N.pl3     1 <0>        -0.9435
     13 C11        -5.8972   -2.7202   -1.2807 C.3       1 <0>         0.0761
     14 S1         -6.4012   -1.6731   -3.7228 S.o2      1 <0>         2.5940
     15 O2         -7.7141   -1.7090   -3.1805 O.2       1 <0>        -0.9342
     16 O3         -5.8939   -0.4846   -4.3139 O.2       1 <0>        -0.9334
     17 C12        -6.1461   -3.0826   -4.8358 C.3       1 <0>        -0.6717
     18 C13        -1.4614   -0.5118   -4.9588 C.2       1 <0>         0.5662
     19 O4         -2.0459   -0.7181   -6.0044 O.2       1 <0>        -0.4960
     20 N2         -0.1952   -0.0502   -4.9743 N.am      1 <0>        -0.7241
     21 C14         0.4765    0.2031   -6.2514 C.3       1 <0>         0.1278
     22 H1          0.1547   -0.5369   -6.9842 H         1 <0>         0.1112
     23 C15         0.1152    1.6041   -6.7487 C.3       1 <0>        -0.1016
     24 C16        -1.3592    1.6636   -7.0551 C.ar      1 <0>        -0.0821
     25 C17        -1.8158    1.3426   -8.3198 C.ar      1 <0>        -0.1095
     26 C18        -3.1682    1.3972   -8.6008 C.ar      1 <0>        -0.1124
     27 C19        -4.0640    1.7723   -7.6171 C.ar      1 <0>        -0.1085
     28 C20        -3.6074    2.0925   -6.3522 C.ar      1 <0>        -0.0993
     29 C21        -2.2555    2.0337   -6.0699 C.ar      1 <0>        -0.1084
     30 C22         1.9913    0.1051   -6.0591 C.3       1 <0>         0.0742
     31 H2          2.2402   -0.8616   -5.6212 H         1 <0>         0.1335
     32 C23         2.6875    0.2457   -7.4142 C.3       1 <0>        -0.0413
     33 N3          4.1314    0.0326   -7.2473 N.4       1 <0>        -0.4743
     34 C24         4.7999    0.1676   -8.5483 C.3       1 <0>        -0.0863
     35 C25         5.5007   -1.0692   -9.1142 C.3       1 <0>        -0.1540
     36 C26         6.3281    0.0962   -8.5681 C.3       1 <0>        -0.1531
     37 O5          2.4293    1.1496   -5.1878 O.3       1 <0>        -0.5499
     38 H3          1.0039    1.9031    0.0027 H         1 <0>         0.0723
     39 H4         -0.5459    1.8868   -0.8726 H         1 <0>         0.0609
     40 H5         -0.5289    1.8773    0.9072 H         1 <0>         0.0659
     41 H6          0.5123   -0.3556   -0.8948 H         1 <0>         0.0931
     42 H7          0.2319   -0.1594    2.1383 H         1 <0>         0.0693
     43 H8          0.7568   -1.6008    1.2356 H         1 <0>         0.0586
     44 H9          1.7647   -0.1336    1.2338 H         1 <0>         0.0666
     45 H10        -0.4557   -0.1614   -2.4822 H         1 <0>         0.1365
     46 H11        -3.9701   -1.4284   -4.5826 H         1 <0>         0.1456
     47 H12        -3.9245   -1.4501   -0.3098 H         1 <0>         0.1493
     48 H13        -6.3339   -2.0339   -0.5551 H         1 <0>         0.0767
     49 H14        -6.6551   -3.4308   -1.6105 H         1 <0>         0.0879
     50 H15        -5.0701   -3.2593   -0.8187 H         1 <0>         0.0850
     51 H16        -6.4115   -4.0055   -4.3200 H         1 <0>         0.1338
     52 H17        -6.7742   -2.9665   -5.7190 H         1 <0>         0.1385
     53 H18        -5.0993   -3.1229   -5.1371 H         1 <0>         0.1305
     54 H19         0.2712    0.1144   -4.1399 H         1 <0>         0.4056
     55 H20         0.3560    2.3365   -5.9782 H         1 <0>         0.0825
     56 H21         0.6832    1.8268   -7.6519 H         1 <0>         0.0794
     57 H22        -1.1159    1.0495   -9.0883 H         1 <0>         0.1107
     58 H23        -3.5248    1.1471   -9.5891 H         1 <0>         0.1185
     59 H24        -5.1205    1.8157   -7.8369 H         1 <0>         0.1201
     60 H25        -4.3073    2.3859   -5.5837 H         1 <0>         0.1211
     61 H26        -1.8991    2.2802   -5.0806 H         1 <0>         0.1099
     62 H27         2.2885   -0.4957   -8.1064 H         1 <0>         0.1476
     63 H28         2.5113    1.2454   -7.8112 H         1 <0>         0.1419
     64 H29         4.5008    0.7189   -6.6065 H         1 <0>         0.4333
     65 H30         4.3183    0.8417   -9.2566 H         1 <0>         0.1781
     66 H31         5.4658   -1.9830   -8.5210 H         1 <0>         0.1217
     67 H32         5.4802   -1.2090  -10.1950 H         1 <0>         0.1344
     68 H33         6.8519    0.7232   -9.2897 H         1 <0>         0.1349
     69 H34         6.8375   -0.0509   -7.6158 H         1 <0>         0.1221
     70 H35         2.2402    2.0398   -5.5148 H         1 <0>         0.3929
     71 H36         4.2945   -0.8928   -6.8797 H         1 <0>         0.4265
@<TRIPOS>BOND
     1    1    2 1
     2    1   38 1
     3    1   39 1
     4    1   40 1
     5    2    3 1
     6    2    4 1
     7    2   41 1
     8    3   42 1
     9    3   43 1
    10    3   44 1
    11    4    5 2
    12    4    6 1
    13    6   11 ar
    14    6    7 ar
    15    7    8 ar
    16    7   45 1
    17    8    9 ar
    18    8   18 1
    19    9   10 ar
    20    9   46 1
    21   10   11 ar
    22   10   12 1
    23   11   47 1
    24   12   13 1
    25   12   14 1
    26   13   48 1
    27   13   49 1
    28   13   50 1
    29   14   15 2
    30   14   16 2
    31   14   17 1
    32   17   51 1
    33   17   52 1
    34   17   53 1
    35   18   19 2
    36   18   20 am
    37   20   21 1
    38   20   54 1
    39   21   22 1
    40   21   23 1
    41   21   30 1
    42   23   24 1
    43   23   55 1
    44   23   56 1
    45   24   29 ar
    46   24   25 ar
    47   25   26 ar
    48   25   57 1
    49   26   27 ar
    50   26   58 1
    51   27   28 ar
    52   27   59 1
    53   28   29 ar
    54   28   60 1
    55   29   61 1
    56   30   31 1
    57   30   32 1
    58   30   37 1
    59   32   33 1
    60   32   62 1
    61   32   63 1
    62   33   34 1
    63   33   64 1
    64   33   71 1
    65   34   36 1
    66   34   35 1
    67   34   65 1
    68   35   36 1
    69   35   66 1
    70   35   67 1
    71   36   68 1
    72   36   69 1
    73   37   70 1
@<TRIPOS>MOLECULE
CHEMBL190644
   56    57     0     0     0
SMALL
USER_CHARGES

@<TRIPOS>ATOM
      1 C1         -1.7702    0.5343   -0.7273 C.3       1 <0>        -0.1527
      2 C2         -1.4030   -0.9485   -0.6414 C.3       1 <0>         0.0574
      3 O1         -0.5445   -1.2905   -1.7314 O.3       1 <0>        -0.3908
      4 C3         -0.1403   -2.6611   -1.7450 C.3       1 <0>         0.0659
      5 C4          0.7709   -2.9122   -2.9481 C.3       1 <0>        -0.1310
      6 C5          1.2037   -4.3796   -2.9626 C.3       1 <0>         0.1252
      7 N1          2.0761   -4.6201   -4.1147 N.am      1 <0>        -0.7318
      8 C6          2.5819   -5.8503   -4.3318 C.2       1 <0>         0.5605
      9 O2          2.3140   -6.7607   -3.5715 O.2       1 <0>        -0.5101
     10 C7          3.4599   -6.0923   -5.4913 C.ar      1 <0>        -0.1326
     11 C8          3.7747   -5.0475   -6.3641 C.ar      1 <0>        -0.1080
     12 C9          4.5991   -5.2820   -7.4498 C.ar      1 <0>         0.1506
     13 C10         5.1153   -6.5544   -7.6750 C.ar      1 <0>        -0.0832
     14 C11         4.8103   -7.5918   -6.8191 C.ar      1 <0>        -0.1135
     15 C12         3.9884   -7.3715   -5.7208 C.ar      1 <0>         0.2238
     16 N2          3.6859   -8.4170   -4.8549 N.pl3     1 <0>        -0.6730
     17 C13         4.5395   -8.6758   -3.6927 C.3       1 <0>         0.1238
     18 C14         2.5137   -9.2594   -5.1050 C.3       1 <0>         0.1282
     19 N3          4.9152   -4.2344   -8.3264 N.am      1 <0>        -0.6802
     20 C15         5.1000   -4.4854   -9.6376 C.2       1 <0>         0.7040
     21 O3          4.9008   -5.6016  -10.0769 O.2       1 <0>        -0.5484
     22 N4          5.5056   -3.4993  -10.4619 N.am      1 <0>        -0.6798
     23 C16         5.5932   -3.7304  -11.8392 C.ar      1 <0>         0.1749
     24 C17         6.5747   -3.0962  -12.5901 C.ar      1 <0>        -0.1418
     25 C18         6.6595   -3.3263  -13.9491 C.ar      1 <0>        -0.0851
     26 C19         5.7683   -4.1868  -14.5634 C.ar      1 <0>        -0.1260
     27 C20         4.7891   -4.8204  -13.8186 C.ar      1 <0>        -0.0143
     28 C21         4.7030   -4.5983  -12.4568 C.ar      1 <0>        -0.1139
     29 Cl1         3.6722   -5.9000  -14.5938 Cl        1 <0>        -0.0621
     30 H1         -0.8631    1.1367   -0.6783 H         1 <0>         0.0631
     31 H2         -2.2841    0.7274   -1.6690 H         1 <0>         0.0631
     32 H3         -2.4250    0.7952    0.1041 H         1 <0>         0.0723
     33 H4         -0.8891   -1.1415    0.3003 H         1 <0>         0.0494
     34 H5         -2.3101   -1.5508   -0.6905 H         1 <0>         0.0494
     35 H6          0.3998   -2.8897   -0.8262 H         1 <0>         0.0530
     36 H7         -1.0212   -3.2990   -1.8169 H         1 <0>         0.0531
     37 H8          0.2308   -2.6836   -3.8669 H         1 <0>         0.0783
     38 H9          1.6518   -2.2743   -2.8762 H         1 <0>         0.0783
     39 H10         1.7438   -4.6082   -2.0439 H         1 <0>         0.0706
     40 H11         0.3228   -5.0175   -3.0346 H         1 <0>         0.0704
     41 H12         2.2898   -3.8938   -4.7212 H         1 <0>         0.3978
     42 H13         3.3750   -4.0592   -6.1915 H         1 <0>         0.1281
     43 H14         5.7581   -6.7305   -8.5248 H         1 <0>         0.1422
     44 H15         5.2148   -8.5767   -7.0005 H         1 <0>         0.1350
     45 H16         4.1741   -8.1049   -2.8392 H         1 <0>         0.0403
     46 H17         4.5168   -9.7394   -3.4550 H         1 <0>         0.0558
     47 H18         5.5626   -8.3759   -3.9194 H         1 <0>         0.0475
     48 H19         2.6144   -9.7429   -6.0766 H         1 <0>         0.0354
     49 H20         2.4396  -10.0191   -4.3269 H         1 <0>         0.0643
     50 H21         1.6149   -8.6428   -5.0975 H         1 <0>         0.0392
     51 H22         5.0009   -3.3290   -7.9891 H         1 <0>         0.4100
     52 H23         5.7367   -2.6293  -10.1004 H         1 <0>         0.4120
     53 H24         7.2709   -2.4234  -12.1114 H         1 <0>         0.1331
     54 H25         7.4227   -2.8332  -14.5330 H         1 <0>         0.1385
     55 H26         5.8363   -4.3644  -15.6265 H         1 <0>         0.1360
     56 H27         3.9414   -5.0961  -11.8749 H         1 <0>         0.1480
@<TRIPOS>BOND
     1    1    2 1
     2    1   30 1
     3    1   31 1
     4    1   32 1
     5    2    3 1
     6    2   33 1
     7    2   34 1
     8    3    4 1
     9    4    5 1
    10    4   35 1
    11    4   36 1
    12    5    6 1
    13    5   37 1
    14    5   38 1
    15    6    7 1
    16    6   39 1
    17    6   40 1
    18    7    8 am
    19    7   41 1
    20    8    9 2
    21    8   10 1
    22   10   15 ar
    23   10   11 ar
    24   11   12 ar
    25   11   42 1
    26   12   13 ar
    27   12   19 1
    28   13   14 ar
    29   13   43 1
    30   14   15 ar
    31   14   44 1
    32   15   16 1
    33   16   17 1
    34   16   18 1
    35   17   45 1
    36   17   46 1
    37   17   47 1
    38   18   48 1
    39   18   49 1
    40   18   50 1
    41   19   20 am
    42   19   51 1
    43   20   21 2
    44   20   22 am
    45   22   23 1
    46   22   52 1
    47   23   28 ar
    48   23   24 ar
    49   24   25 ar
    50   24   53 1
    51   25   26 ar
    52   25   54 1
    53   26   27 ar
    54   26   55 1
    55   27   28 ar
    56   27   29 1
    57   28   56 1
@<TRIPOS>MOLECULE
CHEMBL568960
   60    64     0     0     0
SMALL
USER_CHARGES

@<TRIPOS>ATOM
      1 C1          2.1725    1.4125    0.5918 C.ar      1 <0>        -0.1067
      2 C2          1.1111    2.0865    0.0222 C.ar      1 <0>        -0.0749
      3 C3          0.0717    1.3714   -0.5691 C.ar      1 <0>        -0.0327
      4 C4          0.1101   -0.0217   -0.5817 C.ar      1 <0>        -0.0921
      5 C5          1.1761   -0.6852   -0.0093 C.ar      1 <0>        -0.1029
      6 C6          2.2054    0.0299    0.5764 C.ar      1 <0>        -0.0687
      7 C7          1.2188   -2.1915   -0.0217 C.3       1 <0>         0.2124
      8 C8          0.1506   -2.7621    0.8898 C.cat     1 <0>         0.5035
      9 N1         -1.1224   -2.6442    0.7192 N.pl3     1 <0>        -0.5635
     10 C9         -2.0742   -3.2929    1.6228 C.3       1 <0>         0.0498
     11 C10        -2.2638   -2.4723    2.8901 C.3       1 <0>        -0.1506
     12 C11        -0.9597   -1.8205    3.3276 C.3       1 <0>        -0.1391
     13 C12        -0.1094   -2.8537    4.0794 C.3       1 <0>        -0.1445
     14 C13         0.2378   -3.9866    3.1006 C.3       1 <0>         0.0724
     15 N2          0.8331   -3.3867    1.8991 N.pl3     1 <0>        -0.5281
     16 C14         2.1854   -3.3486    1.6359 C.2       1 <0>         0.5931
     17 N3          2.4765   -2.6778    0.5664 N.2       1 <0>        -0.5235
     18 N4          3.1289   -3.9595    2.4274 N.pl3     1 <0>        -0.8073
     19 C15         1.0546   -2.7128   -1.4261 C.ar      1 <0>        -0.1168
     20 C16         1.6179   -2.0277   -2.4868 C.ar      1 <0>        -0.0266
     21 C17         1.4684   -2.5032   -3.7752 C.ar      1 <0>        -0.1097
     22 C18         0.7528   -3.6695   -4.0042 C.ar      1 <0>         0.1365
     23 C19         0.1890   -4.3553   -2.9382 C.ar      1 <0>        -0.1821
     24 C20         0.3457   -3.8784   -1.6512 C.ar      1 <0>        -0.0806
     25 O1          0.6039   -4.1391   -5.2708 O.3       1 <0>        -0.3038
     26 C21        -0.1452   -5.3453   -5.4317 C.3       1 <0>         0.6045
     27 F1         -1.4435   -5.1562   -4.9459 F         1 <0>        -0.1635
     28 F2         -0.1995   -5.6831   -6.7882 F         1 <0>        -0.1213
     29 F3          0.4738   -6.3773   -4.7184 F         1 <0>        -0.1625
     30 C22        -1.0721    2.0903   -1.1825 C.ar      1 <0>        -0.1365
     31 C23        -1.7397    3.0944   -0.4778 C.ar      1 <0>        -0.0327
     32 C24        -2.8011    3.7356   -1.0941 C.ar      1 <0>        -0.1769
     33 C25        -3.1641    3.3659   -2.3758 C.ar      1 <0>         0.1480
     34 N5         -2.5161    2.4133   -3.0187 N.ar      1 <0>        -0.5069
     35 C26        -1.4951    1.7781   -2.4759 C.ar      1 <0>         0.3204
     36 F4         -0.8575    0.8138   -3.1750 F         1 <0>        -0.1059
     37 H1          2.9809    1.9658    1.0464 H         1 <0>         0.1410
     38 H2          1.0862    3.1661    0.0351 H         1 <0>         0.1376
     39 H3         -0.6931   -0.5809   -1.0383 H         1 <0>         0.1182
     40 H4          3.0379   -0.4934    1.0230 H         1 <0>         0.1419
     41 H5         -3.0340   -3.3981    1.1170 H         1 <0>         0.1349
     42 H6         -1.6996   -4.2814    1.8885 H         1 <0>         0.1115
     43 H7         -3.0062   -1.6960    2.7049 H         1 <0>         0.0926
     44 H8         -2.6218   -3.1241    3.6871 H         1 <0>         0.1081
     45 H9         -0.4157   -1.4694    2.4508 H         1 <0>         0.0541
     46 H10        -1.1758   -0.9784    3.9851 H         1 <0>         0.0979
     47 H11         0.8062   -2.3849    4.4400 H         1 <0>         0.0879
     48 H12        -0.6749   -3.2542    4.9207 H         1 <0>         0.1090
     49 H13         0.9516   -4.6675    3.5642 H         1 <0>         0.1203
     50 H14        -0.6678   -4.5298    2.8305 H         1 <0>         0.1160
     51 H15         2.8547   -4.4494    3.2184 H         1 <0>         0.4181
     52 H16         4.0687   -3.9007    2.1949 H         1 <0>         0.4409
     53 H17         2.1749   -1.1199   -2.3080 H         1 <0>         0.1491
     54 H18         1.9080   -1.9674   -4.6035 H         1 <0>         0.1547
     55 H19        -0.3686   -5.2633   -3.1139 H         1 <0>         0.1435
     56 H20        -0.0893   -4.4142   -0.8205 H         1 <0>         0.1166
     57 H21        -1.4359    3.3638    0.5230 H         1 <0>         0.1489
     58 H22        -3.3402    4.5166   -0.5785 H         1 <0>         0.1529
     59 H23        -3.9916    3.8647   -2.8584 H         1 <0>         0.1750
     60 H24        -1.4557   -2.1151   -0.0224 H         1 <0>         0.4493
@<TRIPOS>BOND
     1    1    6 ar
     2    1    2 ar
     3    1   37 1
     4    2    3 ar
     5    2   38 1
     6    3    4 ar
     7    3   30 1
     8    4    5 ar
     9    4   39 1
    10    5    6 ar
    11    5    7 1
    12    6   40 1
    13    7   17 1
    14    7    8 1
    15    7   19 1
    16    8   15 1
    17    8    9 2
    18    9   10 1
    19    9   60 1
    20   10   11 1
    21   10   41 1
    22   10   42 1
    23   11   12 1
    24   11   43 1
    25   11   44 1
    26   12   13 1
    27   12   45 1
    28   12   46 1
    29   13   14 1
    30   13   47 1
    31   13   48 1
    32   14   15 1
    33   14   49 1
    34   14   50 1
    35   15   16 1
    36   16   17 2
    37   16   18 1
    38   18   51 1
    39   18   52 1
    40   19   24 ar
    41   19   20 ar
    42   20   21 ar
    43   20   53 1
    44   21   22 ar
    45   21   54 1
    46   22   23 ar
    47   22   25 1
    48   23   24 ar
    49   23   55 1
    50   24   56 1
    51   25   26 1
    52   26   27 1
    53   26   28 1
    54   26   29 1
    55   30   35 ar
    56   30   31 ar
    57   31   32 ar
    58   31   57 1
    59   32   33 ar
    60   32   58 1
    61   33   34 ar
    62   33   59 1
    63   34   35 ar
    64   35   36 1
@<TRIPOS>MOLECULE
CHEMBL568960__1
   60    64     0     0     0
SMALL
USER_CHARGES

@<TRIPOS>ATOM
      1 C1         -1.0822    0.7475    0.5634 C.ar      1 <0>        -0.1015
      2 C2         -0.3577    1.7869    0.0156 C.ar      1 <0>        -0.0779
      3 C3          0.8909    1.5397   -0.5511 C.ar      1 <0>        -0.0349
      4 C4          1.4013    0.2429   -0.5614 C.ar      1 <0>        -0.0535
      5 C5          0.6684   -0.7887   -0.0109 C.ar      1 <0>        -0.0974
      6 C6         -0.5708   -0.5375    0.5504 C.ar      1 <0>        -0.1167
      7 C7          1.2188   -2.1915   -0.0217 C.3       1 <0>         0.2131
      8 C8          0.3523   -3.0970   -0.8742 C.cat     1 <0>         0.5069
      9 N1         -0.9065   -3.3150   -0.6969 N.pl3     1 <0>        -0.5666
     10 C9         -1.6702   -4.1563   -1.6200 C.3       1 <0>         0.0497
     11 C10        -1.4670   -5.6308   -1.3038 C.3       1 <0>        -0.1514
     12 C11        -0.0389   -5.9093   -0.8571 C.3       1 <0>        -0.1404
     13 C12         0.8633   -6.0123   -2.0946 C.3       1 <0>        -0.1448
     14 C13         0.8516   -4.6502   -2.8062 C.3       1 <0>         0.0726
     15 N2          1.1944   -3.6162   -1.8207 N.pl3     1 <0>        -0.5267
     16 C14         2.4400   -3.0394   -1.6982 C.2       1 <0>         0.5992
     17 N3          2.5279   -2.2280   -0.6919 N.2       1 <0>        -0.5321
     18 N4          3.4825   -3.2980   -2.5562 N.pl3     1 <0>        -0.8059
     19 C15         1.3279   -2.7267    1.3828 C.ar      1 <0>        -0.1161
     20 C16         2.5695   -2.8586    1.9766 C.ar      1 <0>        -0.0300
     21 C17         2.6722   -3.3494    3.2639 C.ar      1 <0>        -0.1132
     22 C18         1.5282   -3.7096    3.9610 C.ar      1 <0>         0.1347
     23 C19         0.2834   -3.5758    3.3631 C.ar      1 <0>        -0.1801
     24 C20         0.1857   -3.0797    2.0775 C.ar      1 <0>        -0.0808
     25 O1          1.6266   -4.1930    5.2273 O.3       1 <0>        -0.3043
     26 C21         0.4071   -4.5436    5.8845 C.3       1 <0>         0.6043
     27 F1         -0.2479   -5.5393    5.1518 F         1 <0>        -0.1641
     28 F2          0.6899   -5.0198    7.1692 F         1 <0>        -0.1212
     29 F3         -0.4146   -3.4151    5.9758 F         1 <0>        -0.1611
     30 C22         1.6740    2.6528   -1.1418 C.ar      1 <0>        -0.1365
     31 C23         1.0825    3.5325   -2.0511 C.ar      1 <0>        -0.0329
     32 C24         1.8557    4.5553   -2.5744 C.ar      1 <0>        -0.1786
     33 C25         3.1767    4.6733   -2.1845 C.ar      1 <0>         0.1479
     34 N5          3.7106    3.8277   -1.3238 N.ar      1 <0>        -0.5079
     35 C26         3.0128    2.8416   -0.7936 C.ar      1 <0>         0.3248
     36 F4          3.6001    2.0042    0.0890 F         1 <0>        -0.1037
     37 H1         -2.0482    0.9387    1.0069 H         1 <0>         0.1412
     38 H2         -0.7582    2.7899    0.0259 H         1 <0>         0.1381
     39 H3          2.3685    0.0456   -0.9997 H         1 <0>         0.1440
     40 H4         -1.1409   -1.3477    0.9804 H         1 <0>         0.1144
     41 H5         -2.7293   -3.9137   -1.5334 H         1 <0>         0.1349
     42 H6         -1.3405   -3.9598   -2.6402 H         1 <0>         0.1117
     43 H7         -2.1530   -5.9230   -0.5087 H         1 <0>         0.0934
     44 H8         -1.6835   -6.2200   -2.1949 H         1 <0>         0.1086
     45 H9          0.3086   -5.0965   -0.2194 H         1 <0>         0.0534
     46 H10        -0.0066   -6.8477   -0.3034 H         1 <0>         0.0989
     47 H11         1.8800   -6.2599   -1.7896 H         1 <0>         0.0881
     48 H12         0.4816   -6.7818   -2.7656 H         1 <0>         0.1095
     49 H13         1.5865   -4.6494   -3.6112 H         1 <0>         0.1203
     50 H14        -0.1408   -4.4562   -3.2131 H         1 <0>         0.1165
     51 H15         3.3611   -3.9151   -3.2947 H         1 <0>         0.4188
     52 H16         4.3395   -2.8635   -2.4230 H         1 <0>         0.4414
     53 H17         3.4599   -2.5781    1.4335 H         1 <0>         0.1592
     54 H18         3.6424   -3.4529    3.7270 H         1 <0>         0.1546
     55 H19        -0.6087   -3.8555    3.9038 H         1 <0>         0.1458
     56 H20        -0.7833   -2.9712    1.6133 H         1 <0>         0.1148
     57 H21         0.0480    3.4178   -2.3392 H         1 <0>         0.1480
     58 H22         1.4310    5.2536   -3.2803 H         1 <0>         0.1524
     59 H23         3.7816    5.4701   -2.5914 H         1 <0>         0.1747
     60 H24        -1.3560   -2.9138    0.0634 H         1 <0>         0.4444
@<TRIPOS>BOND
     1    1    6 ar
     2    1    2 ar
     3    1   37 1
     4    2    3 ar
     5    2   38 1
     6    3    4 ar
     7    3   30 1
     8    4    5 ar
     9    4   39 1
    10    5    6 ar
    11    5    7 1
    12    6   40 1
    13    7   17 1
    14    7    8 1
    15    7   19 1
    16    8   15 1
    17    8    9 2
    18    9   10 1
    19    9   60 1
    20   10   11 1
    21   10   41 1
    22   10   42 1
    23   11   12 1
    24   11   43 1
    25   11   44 1
    26   12   13 1
    27   12   45 1
    28   12   46 1
    29   13   14 1
    30   13   47 1
    31   13   48 1
    32   14   15 1
    33   14   49 1
    34   14   50 1
    35   15   16 1
    36   16   17 2
    37   16   18 1
    38   18   51 1
    39   18   52 1
    40   19   24 ar
    41   19   20 ar
    42   20   21 ar
    43   20   53 1
    44   21   22 ar
    45   21   54 1
    46   22   23 ar
    47   22   25 1
    48   23   24 ar
    49   23   55 1
    50   24   56 1
    51   25   26 1
    52   26   27 1
    53   26   28 1
    54   26   29 1
    55   30   35 ar
    56   30   31 ar
    57   31   32 ar
    58   31   57 1
    59   32   33 ar
    60   32   58 1
    61   33   34 ar
    62   33   59 1
    63   34   35 ar
    64   35   36 1
@<TRIPOS>MOLECULE
CHEMBL576258
   54    58     0     0     0
SMALL
USER_CHARGES

@<TRIPOS>ATOM
      1 C1          1.5282    1.5562    0.3432 C.ar      1 <0>        -0.1047
      2 C2          0.2220    1.9661    0.1667 C.ar      1 <0>        -0.0776
      3 C3         -0.7749    1.0229   -0.0738 C.ar      1 <0>        -0.0322
      4 C4         -0.4467   -0.3303   -0.1347 C.ar      1 <0>        -0.1017
      5 C5          0.8624   -0.7287    0.0433 C.ar      1 <0>        -0.0936
      6 C6          1.8482    0.2122    0.2818 C.ar      1 <0>        -0.0643
      7 C7          1.2188   -2.1915   -0.0217 C.3       1 <0>         0.2197
      8 C8          0.3753   -2.9843    0.9408 C.cat     1 <0>         0.4994
      9 N1         -0.8991   -3.1354    0.9980 N.pl3     1 <0>        -0.5620
     10 C9         -1.4765   -3.9574    2.0689 C.3       1 <0>         0.0551
     11 C10        -0.5087   -5.0736    2.4645 C.3       1 <0>        -0.1634
     12 C11         0.8348   -4.4660    2.8955 C.3       1 <0>         0.0849
     13 N2          1.2747   -3.5720    1.8128 N.pl3     1 <0>        -0.5396
     14 C12         2.5470   -3.1943    1.4897 C.2       1 <0>         0.6053
     15 N3          2.5964   -2.4102    0.4544 N.2       1 <0>        -0.5362
     16 N4          3.6596   -3.6010    2.1872 N.pl3     1 <0>        -0.8059
     17 C13         1.0555   -2.7125   -1.4263 C.ar      1 <0>        -0.1194
     18 C14        -0.2093   -2.8582   -1.9657 C.ar      1 <0>        -0.0805
     19 C15        -0.3617   -3.3360   -3.2529 C.ar      1 <0>        -0.1102
     20 C16         0.7557   -3.6692   -4.0047 C.ar      1 <0>         0.1354
     21 C17         2.0236   -3.5216   -3.4614 C.ar      1 <0>        -0.1842
     22 C18         2.1709   -3.0385   -2.1755 C.ar      1 <0>        -0.0261
     23 O1          0.6084   -4.1398   -5.2710 O.3       1 <0>        -0.3063
     24 C19         1.8027   -4.4627   -5.9862 C.3       1 <0>         0.6049
     25 F1          2.5058   -5.4556   -5.2956 F         1 <0>        -0.1624
     26 F2          1.4703   -4.9288   -7.2627 F         1 <0>        -0.1219
     27 F3          2.6012   -3.3196   -6.1005 F         1 <0>        -0.1598
     28 C20        -2.1807    1.4573   -0.2639 C.ar      1 <0>        -0.1356
     29 C21        -2.7832    2.3296    0.6453 C.ar      1 <0>        -0.0326
     30 C22        -4.0976    2.7053    0.4237 C.ar      1 <0>        -0.1755
     31 C23        -4.7668    2.2103   -0.6800 C.ar      1 <0>         0.1473
     32 N5         -4.1735    1.3870   -1.5231 N.ar      1 <0>        -0.5063
     33 C24        -2.9214    1.0054   -1.3578 C.ar      1 <0>         0.3169
     34 F4         -2.3532    0.1660   -2.2510 F         1 <0>        -0.1074
     35 H1          2.3024    2.2869    0.5252 H         1 <0>         0.1421
     36 H2         -0.0269    3.0159    0.2152 H         1 <0>         0.1379
     37 H3         -1.2156   -1.0656   -0.3204 H         1 <0>         0.1066
     38 H4          2.8715   -0.1041    0.4203 H         1 <0>         0.1473
     39 H5         -1.6771   -3.3295    2.9371 H         1 <0>         0.1234
     40 H6         -2.4115   -4.3971    1.7217 H         1 <0>         0.1396
     41 H7         -0.9311   -5.6434    3.2921 H         1 <0>         0.1414
     42 H8         -0.3508   -5.7354    1.6129 H         1 <0>         0.1006
     43 H9          0.7068   -3.8980    3.8170 H         1 <0>         0.1158
     44 H10         1.5692   -5.2574    3.0450 H         1 <0>         0.1268
     45 H11         3.5638   -4.1875    2.9539 H         1 <0>         0.4198
     46 H12         4.5404   -3.3014    1.9129 H         1 <0>         0.4410
     47 H13        -1.0788   -2.5987   -1.3800 H         1 <0>         0.1173
     48 H14        -1.3498   -3.4504   -3.6735 H         1 <0>         0.1530
     49 H15         2.8950   -3.7803   -4.0446 H         1 <0>         0.1468
     50 H16         3.1579   -2.9193   -1.7537 H         1 <0>         0.1548
     51 H17        -2.2379    2.7015    1.5000 H         1 <0>         0.1499
     52 H18        -4.5950    3.3781    1.1066 H         1 <0>         0.1535
     53 H19        -5.7918    2.5020   -0.8548 H         1 <0>         0.1755
     54 H20        -1.4734   -2.7110    0.3415 H         1 <0>         0.4475
@<TRIPOS>BOND
     1    1    6 ar
     2    1    2 ar
     3    1   35 1
     4    2    3 ar
     5    2   36 1
     6    3    4 ar
     7    3   28 1
     8    4    5 ar
     9    4   37 1
    10    5    6 ar
    11    5    7 1
    12    6   38 1
    13    7   15 1
    14    7    8 1
    15    7   17 1
    16    8   13 1
    17    8    9 2
    18    9   10 1
    19    9   54 1
    20   10   11 1
    21   10   39 1
    22   10   40 1
    23   11   12 1
    24   11   41 1
    25   11   42 1
    26   12   13 1
    27   12   43 1
    28   12   44 1
    29   13   14 1
    30   14   15 2
    31   14   16 1
    32   16   45 1
    33   16   46 1
    34   17   22 ar
    35   17   18 ar
    36   18   19 ar
    37   18   47 1
    38   19   20 ar
    39   19   48 1
    40   20   21 ar
    41   20   23 1
    42   21   22 ar
    43   21   49 1
    44   22   50 1
    45   23   24 1
    46   24   25 1
    47   24   26 1
    48   24   27 1
    49   28   33 ar
    50   28   29 ar
    51   29   30 ar
    52   29   51 1
    53   30   31 ar
    54   30   52 1
    55   31   32 ar
    56   31   53 1
    57   32   33 ar
    58   33   34 1
@<TRIPOS>MOLECULE
CHEMBL1091441
   42    45     0     0     0
SMALL
USER_CHARGES

@<TRIPOS>ATOM
      1 C1         -1.5926    1.3379    0.3748 C.3       1 <0>         0.0624
      2 N1         -0.9658    0.0220    0.2276 N.am      1 <0>        -0.5523
      3 C2         -1.6402   -1.1425    0.1242 C.2       1 <0>         0.5441
      4 O1         -2.8422   -1.3018    0.1338 O.2       1 <0>        -0.3828
      5 C3         -0.5701   -2.2081   -0.0072 C.3       1 <0>         0.2187
      6 N2          0.6908   -1.4510    0.0421 N.pl3     1 <0>        -0.6243
      7 C4          0.3885   -0.1960    0.1701 C.cat     1 <0>         0.7343
      8 N3          1.3242    0.8080    0.2441 N.pl3     1 <0>        -0.7747
      9 C5         -0.7019   -2.9305   -1.3233 C.ar      1 <0>        -0.0683
     10 C6          0.4022   -3.1277   -2.1383 C.ar      1 <0>        -0.1585
     11 C7          0.2429   -3.7946   -3.3383 C.ar      1 <0>         0.1202
     12 N4         -0.9411   -4.2402   -3.7104 N.ar      1 <0>        -0.4611
     13 C8         -2.0127   -4.0706   -2.9608 C.ar      1 <0>         0.1249
     14 C9         -1.9291   -3.4186   -1.7451 C.ar      1 <0>        -0.1476
     15 C10        -0.6482   -3.1805    1.1414 C.ar      1 <0>        -0.1147
     16 C11         0.4851   -3.4683    1.8808 C.ar      1 <0>        -0.1066
     17 C12         0.4205   -4.3594    2.9365 C.ar      1 <0>        -0.0990
     18 C13        -0.7764   -4.9671    3.2579 C.ar      1 <0>        -0.0867
     19 C14        -1.9211   -4.6810    2.5166 C.ar      1 <0>         0.0009
     20 C15        -1.8514   -3.7779    1.4573 C.ar      1 <0>        -0.0876
     21 C16        -3.2105   -5.3311    2.8573 C.2       1 <0>        -0.0978
     22 C17        -3.2974   -6.2268    3.9188 C.2       1 <0>        -0.1560
     23 C18        -4.4900   -6.7991    4.1985 C.2       1 <0>        -0.1614
     24 S1         -5.5531   -6.0850    2.9554 S.3       1 <0>         0.0787
     25 C19        -4.3414   -5.0595    2.1391 C.2       1 <0>        -0.1660
     26 H1         -0.8196    2.1044    0.4307 H         1 <0>         0.1017
     27 H2         -2.2354    1.5322   -0.4838 H         1 <0>         0.1103
     28 H3         -2.1891    1.3563    1.2869 H         1 <0>         0.1107
     29 H4          1.0395    1.7300    0.3429 H         1 <0>         0.4451
     30 H5          2.2693    0.5946    0.1975 H         1 <0>         0.4476
     31 H6          1.3744   -2.7645   -1.8395 H         1 <0>         0.1332
     32 H7          1.0980   -3.9523   -3.9789 H         1 <0>         0.1703
     33 H8         -2.9660   -4.4493   -3.2990 H         1 <0>         0.1730
     34 H9         -2.8095   -3.2873   -1.1334 H         1 <0>         0.1488
     35 H10         1.4239   -2.9956    1.6324 H         1 <0>         0.1199
     36 H11         1.3084   -4.5804    3.5104 H         1 <0>         0.1400
     37 H12        -0.8256   -5.6633    4.0821 H         1 <0>         0.1392
     38 H13        -2.7365   -3.5491    0.8822 H         1 <0>         0.1372
     39 H14        -2.4248   -6.4616    4.5103 H         1 <0>         0.1391
     40 H15        -4.7364   -7.5074    4.9756 H         1 <0>         0.1927
     41 H16        -4.4686   -4.3970    1.2958 H         1 <0>         0.1865
     42 H17         1.5851   -1.8223   -0.0150 H         1 <0>         0.4658
@<TRIPOS>BOND
     1    1    2 1
     2    1   26 1
     3    1   27 1
     4    1   28 1
     5    2    7 1
     6    2    3 am
     7    3    4 2
     8    3    5 1
     9    5    6 1
    10    5    9 1
    11    5   15 1
    12    6    7 2
    13    6   42 1
    14    7    8 1
    15    8   29 1
    16    8   30 1
    17    9   14 ar
    18    9   10 ar
    19   10   11 ar
    20   10   31 1
    21   11   12 ar
    22   11   32 1
    23   12   13 ar
    24   13   14 ar
    25   13   33 1
    26   14   34 1
    27   15   20 ar
    28   15   16 ar
    29   16   17 ar
    30   16   35 1
    31   17   18 ar
    32   17   36 1
    33   18   19 ar
    34   18   37 1
    35   19   20 ar
    36   19   21 1
    37   20   38 1
    38   21   25 2
    39   21   22 1
    40   22   23 2
    41   22   39 1
    42   23   24 1
    43   23   40 1
    44   24   25 1
    45   25   41 1
@<TRIPOS>MOLECULE
CHEMBL1091441__1
   42    45     0     0     0
SMALL
USER_CHARGES

@<TRIPOS>ATOM
      1 C1         -1.5573    1.3641    0.4066 C.3       1 <0>         0.0605
      2 N1         -0.9459    0.0424    0.2469 N.am      1 <0>        -0.5528
      3 C2         -1.6382   -1.1074    0.1399 C.2       1 <0>         0.5432
      4 O1         -2.8441   -1.2323    0.1578 O.2       1 <0>        -0.3885
      5 C3         -0.6155   -2.2137   -0.0076 C.3       1 <0>         0.2292
      6 N2          0.6822   -1.5204    0.0336 N.pl3     1 <0>        -0.6638
      7 C4          0.4074   -0.1832    0.1811 C.cat     1 <0>         0.7341
      8 N3          1.3126    0.7498    0.2525 N.pl3     1 <0>        -0.7304
      9 C5         -0.7924   -2.9218   -1.3261 C.ar      1 <0>        -0.0668
     10 C6         -2.0446   -3.3504   -1.7391 C.ar      1 <0>        -0.1501
     11 C7         -2.1683   -3.9965   -2.9545 C.ar      1 <0>         0.1232
     12 N4         -1.1132   -4.2066   -3.7172 N.ar      1 <0>        -0.4627
     13 C8          0.0926   -3.8129   -3.3565 C.ar      1 <0>         0.1181
     14 C9          0.2923   -3.1551   -2.1576 C.ar      1 <0>        -0.1570
     15 C10        -0.7274   -3.1899    1.1349 C.ar      1 <0>        -0.1135
     16 C11         0.3943   -3.5178    1.8753 C.ar      1 <0>        -0.1049
     17 C12         0.2988   -4.4127    2.9255 C.ar      1 <0>        -0.1011
     18 C13        -0.9176   -4.9841    3.2403 C.ar      1 <0>        -0.0881
     19 C14        -2.0507   -4.6575    2.4980 C.ar      1 <0>        -0.0010
     20 C15        -1.9497   -3.7508    1.4443 C.ar      1 <0>        -0.0887
     21 C16        -3.3609   -5.2685    2.8316 C.2       1 <0>        -0.0969
     22 C17        -3.4788   -6.1673    3.8874 C.2       1 <0>        -0.1559
     23 C18        -4.6897   -6.7032    4.1608 C.2       1 <0>        -0.1618
     24 S1         -5.7264   -5.9485    2.9195 S.3       1 <0>         0.0769
     25 C19        -4.4807   -4.9570    2.1124 C.2       1 <0>        -0.1662
     26 H1         -0.7756    2.1216    0.4636 H         1 <0>         0.1002
     27 H2         -2.2026    1.5715   -0.4471 H         1 <0>         0.1115
     28 H3         -2.1487    1.3827    1.3220 H         1 <0>         0.1119
     29 H4          1.0465    1.6764    0.3598 H         1 <0>         0.4496
     30 H5         -2.9124   -3.1819   -1.1186 H         1 <0>         0.1481
     31 H6         -3.1402   -4.3335   -3.2835 H         1 <0>         0.1716
     32 H7          0.9331   -4.0030   -4.0075 H         1 <0>         0.1691
     33 H8          1.2815   -2.8307   -1.8700 H         1 <0>         0.1336
     34 H9          1.3482   -3.0736    1.6321 H         1 <0>         0.1207
     35 H10         1.1777   -4.6651    3.5002 H         1 <0>         0.1388
     36 H11        -0.9909   -5.6833    4.0601 H         1 <0>         0.1381
     37 H12        -2.8256   -3.4907    0.8685 H         1 <0>         0.1365
     38 H13        -2.6157   -6.4332    4.4796 H         1 <0>         0.1389
     39 H14        -4.9604   -7.4080    4.9330 H         1 <0>         0.1925
     40 H15        -4.5847   -4.2858    1.2727 H         1 <0>         0.1864
     41 H16         1.5598   -1.9280   -0.0340 H         1 <0>         0.4643
     42 H17         2.2530    0.5184    0.1985 H         1 <0>         0.4531
@<TRIPOS>BOND
     1    1    2 1
     2    1   26 1
     3    1   27 1
     4    1   28 1
     5    2    7 1
     6    2    3 am
     7    3    4 2
     8    3    5 1
     9    5    6 1
    10    5    9 1
    11    5   15 1
    12    6    7 1
    13    6   41 1
    14    7    8 2
    15    8   29 1
    16    8   42 1
    17    9   14 ar
    18    9   10 ar
    19   10   11 ar
    20   10   30 1
    21   11   12 ar
    22   11   31 1
    23   12   13 ar
    24   13   14 ar
    25   13   32 1
    26   14   33 1
    27   15   20 ar
    28   15   16 ar
    29   16   17 ar
    30   16   34 1
    31   17   18 ar
    32   17   35 1
    33   18   19 ar
    34   18   36 1
    35   19   20 ar
    36   19   21 1
    37   20   37 1
    38   21   25 2
    39   21   22 1
    40   22   23 2
    41   22   38 1
    42   23   24 1
    43   23   39 1
    44   24   25 1
    45   25   40 1
@<TRIPOS>MOLECULE
CHEMBL1091441__2
   42    45     0     0     0
SMALL
USER_CHARGES

@<TRIPOS>ATOM
      1 C1         -0.5465    1.4791   -0.4191 C.3       1 <0>         0.0624
      2 N1         -0.3180    0.0410   -0.2582 N.am      1 <0>        -0.5523
      3 C2         -1.2947   -0.8849   -0.1560 C.2       1 <0>         0.5442
      4 O1         -2.4926   -0.6987   -0.1787 O.2       1 <0>        -0.3828
      5 C3         -0.5701   -2.2081   -0.0072 C.3       1 <0>         0.2187
      6 N2          0.8537   -1.8380   -0.0468 N.pl3     1 <0>        -0.6244
      7 C4          0.9191   -0.5511   -0.1964 C.cat     1 <0>         0.7344
      8 N3          2.1008    0.1457   -0.2802 N.pl3     1 <0>        -0.7747
      9 C5         -0.9123   -2.8532    1.3110 C.ar      1 <0>        -0.0679
     10 C6          0.0848   -3.3320    2.1470 C.ar      1 <0>        -0.1587
     11 C7         -0.2671   -3.9176    3.3483 C.ar      1 <0>         0.1203
     12 N4         -1.5331   -4.0235    3.7018 N.ar      1 <0>        -0.4612
     13 C8         -2.5075   -3.5795    2.9321 C.ar      1 <0>         0.1250
     14 C9         -2.2316   -2.9768    1.7194 C.ar      1 <0>        -0.1476
     15 C10        -0.9092   -3.1283   -1.1515 C.ar      1 <0>        -0.1151
     16 C11         0.1032   -3.7440   -1.8657 C.ar      1 <0>        -0.1065
     17 C12        -0.2008   -4.5900   -2.9168 C.ar      1 <0>        -0.0989
     18 C13        -1.5174   -4.8241   -3.2591 C.ar      1 <0>        -0.0867
     19 C14        -2.5410   -4.2067   -2.5433 C.ar      1 <0>         0.0009
     20 C15        -2.2290   -3.3595   -1.4814 C.ar      1 <0>        -0.0876
     21 C16        -3.9580   -4.4545   -2.9066 C.2       1 <0>        -0.0978
     22 C17        -4.2847   -5.3060   -3.9576 C.2       1 <0>        -0.1560
     23 C18        -5.5875   -5.5068   -4.2587 C.2       1 <0>        -0.1615
     24 S1         -6.4163   -4.4861   -3.0519 S.3       1 <0>         0.0788
     25 C19        -4.9723   -3.8560   -2.2129 C.2       1 <0>        -0.1661
     26 H1          0.4119    1.9947   -0.4805 H         1 <0>         0.1017
     27 H2         -1.1138    1.6569   -1.3327 H         1 <0>         0.1105
     28 H3         -1.1076    1.8558    0.4361 H         1 <0>         0.1104
     29 H4          2.0888    1.1096   -0.3889 H         1 <0>         0.4451
     30 H5          2.9467   -0.3263   -0.2308 H         1 <0>         0.4476
     31 H6          1.1234   -3.2487    1.8627 H         1 <0>         0.1332
     32 H7          0.5036   -4.2930    4.0051 H         1 <0>         0.1703
     33 H8         -3.5327   -3.6842    3.2550 H         1 <0>         0.1729
     34 H9         -3.0336   -2.6106    1.0957 H         1 <0>         0.1487
     35 H10         1.1347   -3.5631   -1.6017 H         1 <0>         0.1199
     36 H11         0.5934   -5.0681   -3.4709 H         1 <0>         0.1400
     37 H12        -1.7536   -5.4844   -4.0805 H         1 <0>         0.1392
     38 H13        -3.0185   -2.8818   -0.9204 H         1 <0>         0.1373
     39 H14        -3.5091   -5.7990   -4.5248 H         1 <0>         0.1391
     40 H15        -6.0169   -6.1265   -5.0320 H         1 <0>         0.1928
     41 H16        -4.9149   -3.1770   -1.3749 H         1 <0>         0.1866
     42 H17         1.6062   -2.4461    0.0222 H         1 <0>         0.4658
@<TRIPOS>BOND
     1    1    2 1
     2    1   26 1
     3    1   27 1
     4    1   28 1
     5    2    7 1
     6    2    3 am
     7    3    4 2
     8    3    5 1
     9    5    6 1
    10    5    9 1
    11    5   15 1
    12    6    7 2
    13    6   42 1
    14    7    8 1
    15    8   29 1
    16    8   30 1
    17    9   14 ar
    18    9   10 ar
    19   10   11 ar
    20   10   31 1
    21   11   12 ar
    22   11   32 1
    23   12   13 ar
    24   13   14 ar
    25   13   33 1
    26   14   34 1
    27   15   20 ar
    28   15   16 ar
    29   16   17 ar
    30   16   35 1
    31   17   18 ar
    32   17   36 1
    33   18   19 ar
    34   18   37 1
    35   19   20 ar
    36   19   21 1
    37   20   38 1
    38   21   25 2
    39   21   22 1
    40   22   23 2
    41   22   39 1
    42   23   24 1
    43   23   40 1
    44   24   25 1
    45   25   41 1
@<TRIPOS>MOLECULE
CHEMBL1091441__3
   42    45     0     0     0
SMALL
USER_CHARGES

@<TRIPOS>ATOM
      1 C1         -0.5531    1.4739   -0.5146 C.3       1 <0>         0.0606
      2 N1         -0.3233    0.0379   -0.3378 N.am      1 <0>        -0.5527
      3 C2         -1.2980   -0.8685   -0.1344 C.2       1 <0>         0.5434
      4 O1         -2.4887   -0.6501   -0.0664 O.2       1 <0>        -0.3869
      5 C3         -0.6155   -2.2137   -0.0076 C.3       1 <0>         0.2297
      6 N2          0.8168   -1.9139   -0.1663 N.pl3     1 <0>        -0.6656
      7 C4          0.9137   -0.5586   -0.3640 C.cat     1 <0>         0.7344
      8 N3          2.0335    0.0791   -0.5492 N.pl3     1 <0>        -0.7306
      9 C5         -0.8808   -2.8129    1.3494 C.ar      1 <0>        -0.0669
     10 C6          0.1579   -3.3123    2.1202 C.ar      1 <0>        -0.1573
     11 C7         -0.1237   -3.8545    3.3598 C.ar      1 <0>         0.1177
     12 N4         -1.3621   -3.9002    3.8105 N.ar      1 <0>        -0.4630
     13 C8         -2.3744   -3.4349    3.1050 C.ar      1 <0>         0.1228
     14 C9         -2.1688   -2.8727    1.8593 C.ar      1 <0>        -0.1491
     15 C10        -1.0821   -3.1454   -1.0963 C.ar      1 <0>        -0.1138
     16 C11        -2.4358   -3.3386   -1.3066 C.ar      1 <0>        -0.0945
     17 C12        -2.8711   -4.1918   -2.3042 C.ar      1 <0>        -0.0965
     18 C13        -1.9559   -4.8561   -3.0957 C.ar      1 <0>        -0.0862
     19 C14        -0.5913   -4.6654   -2.8884 C.ar      1 <0>        -0.0095
     20 C15        -0.1584   -3.7999   -1.8853 C.ar      1 <0>        -0.0948
     21 C16         0.3972   -5.3766   -3.7360 C.2       1 <0>        -0.0865
     22 C17        -0.0206   -6.2356   -4.7481 C.2       1 <0>        -0.1582
     23 C18         0.9102   -6.8658   -5.4995 C.2       1 <0>        -0.1560
     24 S1          2.4357   -6.2621   -4.7970 S.3       1 <0>         0.0738
     25 C19         1.7387   -5.1987   -3.5442 C.2       1 <0>        -0.1797
     26 H1          0.4010    1.9785   -0.6666 H         1 <0>         0.1000
     27 H2         -1.1920    1.6355   -1.3829 H         1 <0>         0.1119
     28 H3         -1.0393    1.8762    0.3741 H         1 <0>         0.1117
     29 H4          2.0284    1.0402   -0.6801 H         1 <0>         0.4497
     30 H5          1.1742   -3.2783    1.7562 H         1 <0>         0.1330
     31 H6          0.6798   -4.2456    3.9663 H         1 <0>         0.1687
     32 H7         -3.3753   -3.4900    3.5071 H         1 <0>         0.1719
     33 H8         -3.0013   -2.4889    1.2884 H         1 <0>         0.1500
     34 H9         -3.1553   -2.8214   -0.6892 H         1 <0>         0.1377
     35 H10        -3.9290   -4.3389   -2.4640 H         1 <0>         0.1417
     36 H11        -2.2969   -5.5227   -3.8740 H         1 <0>         0.1381
     37 H12         0.8981   -3.6450   -1.7232 H         1 <0>         0.1199
     38 H13        -1.0728   -6.3967   -4.9304 H         1 <0>         0.1406
     39 H14         0.7670   -7.5578   -6.3162 H         1 <0>         0.1934
     40 H15         2.2457   -4.5767   -2.8214 H         1 <0>         0.1807
     41 H16         1.5487   -2.5499   -0.1400 H         1 <0>         0.4633
     42 H17         2.8730   -0.4069   -0.5562 H         1 <0>         0.4529
@<TRIPOS>BOND
     1    1    2 1
     2    1   26 1
     3    1   27 1
     4    1   28 1
     5    2    7 1
     6    2    3 am
     7    3    4 2
     8    3    5 1
     9    5    6 1
    10    5    9 1
    11    5   15 1
    12    6    7 1
    13    6   41 1
    14    7    8 2
    15    8   29 1
    16    8   42 1
    17    9   14 ar
    18    9   10 ar
    19   10   11 ar
    20   10   30 1
    21   11   12 ar
    22   11   31 1
    23   12   13 ar
    24   13   14 ar
    25   13   32 1
    26   14   33 1
    27   15   20 ar
    28   15   16 ar
    29   16   17 ar
    30   16   34 1
    31   17   18 ar
    32   17   35 1
    33   18   19 ar
    34   18   36 1
    35   19   20 ar
    36   19   21 1
    37   20   37 1
    38   21   25 2
    39   21   22 1
    40   22   23 2
    41   22   38 1
    42   23   24 1
    43   23   39 1
    44   24   25 1
    45   25   40 1
@<TRIPOS>MOLECULE
CHEMBL589369
   78    81     0     0     0
SMALL
USER_CHARGES

@<TRIPOS>ATOM
      1 C1         -0.0279    0.4099    2.8577 C.3       1 <0>        -0.1101
      2 C2          0.0248   -0.9448    2.1995 C.ar      1 <0>         0.1664
      3 C3         -0.1291   -1.0481    0.8344 C.ar      1 <0>        -0.1424
      4 C4         -0.0897   -2.3160    0.2194 C.ar      1 <0>        -0.0679
      5 C5          0.1139   -3.4284    1.0418 C.ar      1 <0>        -0.1724
      6 C6          0.2796   -3.2306    2.4067 C.ar      1 <0>         0.3187
      7 N1          0.2229   -2.0198    2.9323 N.ar      1 <0>        -0.4743
      8 O1          0.5439   -4.2728    3.2266 O.3       1 <0>        -0.3009
      9 C7          0.0806   -5.5625    2.8371 C.3       1 <0>         0.0642
     10 C8          0.7384   -6.6259    3.7204 C.3       1 <0>        -0.1207
     11 C9          0.3170   -8.0108    3.2252 C.3       1 <0>        -0.1419
     12 C10         1.3104   -8.4933    2.1647 C.3       1 <0>         0.0653
     13 O2          0.6160   -9.2779    1.1957 O.3       1 <0>        -0.3255
     14 C11         0.6847   -8.8777   -0.0990 C.ar      1 <0>         0.1255
     15 C12         1.2478   -9.7154   -1.0482 C.ar      1 <0>        -0.1329
     16 C13         1.3268   -9.3284   -2.3711 C.ar      1 <0>        -0.0828
     17 C14         0.8366   -8.0904   -2.7398 C.ar      1 <0>        -0.1449
     18 C15         0.2654   -7.2439   -1.8028 C.ar      1 <0>        -0.0792
     19 C16         0.1899   -7.6368   -0.4790 C.ar      1 <0>        -0.1741
     20 C17        -0.2902   -5.9262   -2.2513 C.3       1 <0>        -0.1023
     21 C18         0.0240   -4.8097   -1.2514 C.3       1 <0>         0.0987
     22 H1         -0.6365   -4.8814   -0.3873 H         1 <0>         0.1250
     23 N2         -0.2216   -3.5317   -1.9836 N.am      1 <0>        -0.7251
     24 C19        -0.2554   -2.4071   -1.2362 C.2       1 <0>         0.5473
     25 O3         -0.4408   -1.3633   -1.8299 O.2       1 <0>        -0.5106
     26 C20         1.4855   -4.8946   -0.8067 C.3       1 <0>         0.0571
     27 H2          1.6007   -5.7082   -0.0905 H         1 <0>         0.1365
     28 C21         2.3746   -5.1569   -2.0239 C.3       1 <0>        -0.0571
     29 N3          3.7790   -5.2257   -1.5988 N.4       1 <0>        -0.5035
     30 C22         4.6326   -5.4775   -2.7676 C.3       1 <0>         0.0465
     31 C23         6.0734   -5.5480   -2.3314 C.ar      1 <0>        -0.1646
     32 C24         6.8430   -4.3999   -2.2996 C.ar      1 <0>        -0.0970
     33 C25         8.1644   -4.4646   -1.8997 C.ar      1 <0>        -0.1093
     34 C26         8.7165   -5.6773   -1.5309 C.ar      1 <0>        -0.0780
     35 C27         7.9469   -6.8249   -1.5619 C.ar      1 <0>        -0.0651
     36 C28         6.6239   -6.7595   -1.9579 C.ar      1 <0>        -0.0926
     37 C29         8.5489   -8.1469   -1.1604 C.3       1 <0>        -0.0612
     38 C30         9.7300   -8.4691   -2.0779 C.3       1 <0>        -0.1500
     39 C31         9.0352   -8.0669    0.2880 C.3       1 <0>        -0.1489
     40 O4          1.8692   -3.6623   -0.1934 O.3       1 <0>        -0.5300
     41 H3          0.9742    0.8373    2.8901 H         1 <0>         0.0864
     42 H4         -0.6846    1.0661    2.2864 H         1 <0>         0.0840
     43 H5         -0.4116    0.3060    3.8726 H         1 <0>         0.0855
     44 H6         -0.2797   -0.1608    0.2375 H         1 <0>         0.1516
     45 H7          0.1415   -4.4237    0.6233 H         1 <0>         0.1519
     46 H8         -1.0020   -5.6108    2.9547 H         1 <0>         0.0718
     47 H9          0.3419   -5.7432    1.7945 H         1 <0>         0.0467
     48 H10         1.8226   -6.5309    3.6601 H         1 <0>         0.0802
     49 H11         0.4155   -6.4936    4.7530 H         1 <0>         0.0916
     50 H12         0.3098   -8.7097    4.0616 H         1 <0>         0.0918
     51 H13        -0.6806   -7.9535    2.7898 H         1 <0>         0.0827
     52 H14         1.7686   -7.6331    1.6765 H         1 <0>         0.0552
     53 H15         2.0831   -9.0991    2.6381 H         1 <0>         0.0896
     54 H16         1.6290  -10.6809   -0.7500 H         1 <0>         0.1361
     55 H17         1.7663   -9.9846   -3.1078 H         1 <0>         0.1391
     56 H18         0.8996   -7.7781   -3.7718 H         1 <0>         0.1296
     57 H19        -0.2522   -6.9812    0.2566 H         1 <0>         0.1264
     58 H20         0.1414   -5.6691   -3.2186 H         1 <0>         0.0922
     59 H21        -1.3714   -6.0141   -2.3580 H         1 <0>         0.1090
     60 H22        -0.3519   -3.5104   -2.9446 H         1 <0>         0.4226
     61 H23         2.0882   -6.1016   -2.4862 H         1 <0>         0.1537
     62 H24         2.2522   -4.3481   -2.7443 H         1 <0>         0.1407
     63 H25         4.0441   -4.3512   -1.1709 H         1 <0>         0.4302
     64 H26         4.3463   -6.4222   -3.2298 H         1 <0>         0.1386
     65 H27         4.5102   -4.6687   -3.4879 H         1 <0>         0.1385
     66 H28         6.4117   -3.4526   -2.5877 H         1 <0>         0.1301
     67 H29         8.7658   -3.5678   -1.8755 H         1 <0>         0.1364
     68 H30         9.7493   -5.7280   -1.2191 H         1 <0>         0.1347
     69 H31         6.0215   -7.6557   -1.9784 H         1 <0>         0.1298
     70 H32         7.7962   -8.9304   -1.2482 H         1 <0>         0.0812
     71 H33        10.1654   -9.4253   -1.7876 H         1 <0>         0.0669
     72 H34         9.3835   -8.5261   -3.1098 H         1 <0>         0.0579
     73 H35        10.4826   -7.6856   -1.9901 H         1 <0>         0.0598
     74 H36         8.1938   -7.8374    0.9417 H         1 <0>         0.0556
     75 H37         9.4706   -9.0231    0.5784 H         1 <0>         0.0669
     76 H38         9.7879   -7.2834    0.3759 H         1 <0>         0.0598
     77 H39         1.8984   -2.9120   -0.8027 H         1 <0>         0.3818
     78 H40         3.8923   -5.9744   -0.9320 H         1 <0>         0.4273
@<TRIPOS>BOND
     1    1    2 1
     2    1   41 1
     3    1   42 1
     4    1   43 1
     5    2    7 ar
     6    2    3 ar
     7    3    4 ar
     8    3   44 1
     9    4   24 1
    10    4    5 ar
    11    5    6 ar
    12    5   45 1
    13    6    7 ar
    14    6    8 1
    15    8    9 1
    16    9   10 1
    17    9   46 1
    18    9   47 1
    19   10   11 1
    20   10   48 1
    21   10   49 1
    22   11   12 1
    23   11   50 1
    24   11   51 1
    25   12   13 1
    26   12   52 1
    27   12   53 1
    28   13   14 1
    29   14   19 ar
    30   14   15 ar
    31   15   16 ar
    32   15   54 1
    33   16   17 ar
    34   16   55 1
    35   17   18 ar
    36   17   56 1
    37   18   19 ar
    38   18   20 1
    39   19   57 1
    40   20   21 1
    41   20   58 1
    42   20   59 1
    43   21   22 1
    44   21   23 1
    45   21   26 1
    46   23   24 am
    47   23   60 1
    48   24   25 2
    49   26   27 1
    50   26   28 1
    51   26   40 1
    52   28   29 1
    53   28   61 1
    54   28   62 1
    55   29   30 1
    56   29   63 1
    57   29   78 1
    58   30   31 1
    59   30   64 1
    60   30   65 1
    61   31   36 ar
    62   31   32 ar
    63   32   33 ar
    64   32   66 1
    65   33   34 ar
    66   33   67 1
    67   34   35 ar
    68   34   68 1
    69   35   36 ar
    70   35   37 1
    71   36   69 1
    72   37   38 1
    73   37   39 1
    74   37   70 1
    75   38   71 1
    76   38   72 1
    77   38   73 1
    78   39   74 1
    79   39   75 1
    80   39   76 1
    81   40   77 1
@<TRIPOS>MOLECULE
CHEMBL535008
   88    91     0     0     0
SMALL
USER_CHARGES

@<TRIPOS>ATOM
      1 C1         -0.0187    1.5258    0.0104 C.3       1 <0>        -0.1459
      2 C2          0.0021   -0.0041    0.0020 C.3       1 <0>        -0.0491
      3 C3          0.7074   -0.4901   -1.2379 C.2       1 <0>        -0.1576
      4 C4          0.1263   -0.8431   -2.4063 C.2       1 <0>         0.0703
      5 N1          1.0768   -1.2302   -3.3075 N.pl3     1 <0>        -0.4584
      6 C5          2.3098   -1.1425   -2.7201 C.ar      1 <0>         0.0452
      7 C6          2.1398   -0.6613   -1.4045 C.ar      1 <0>        -0.0598
      8 C7          3.2484   -0.4576   -0.5817 C.ar      1 <0>        -0.0540
      9 C8          4.5042   -0.7546   -1.1233 C.ar      1 <0>        -0.1291
     10 C9          4.6608   -1.2389   -2.4323 C.ar      1 <0>        -0.0691
     11 C10         3.5716   -1.4489   -3.2456 C.ar      1 <0>         0.1639
     12 N2          3.6336   -1.9372   -4.5550 N.pl3     1 <0>        -0.9291
     13 S1          2.2974   -2.7489   -5.1343 S.o2      1 <0>         2.5920
     14 O1          2.2459   -3.9518   -4.3795 O.2       1 <0>        -0.9084
     15 O2          2.4746   -2.7835   -6.5438 O.2       1 <0>        -0.9155
     16 C11         0.8931   -1.6731   -4.7006 C.3       1 <0>        -0.3890
     17 C12         4.8253   -1.7427   -5.3846 C.3       1 <0>         0.0801
     18 C13         5.7062   -0.5513   -0.2898 C.2       1 <0>         0.5664
     19 O3          6.8074   -0.8027   -0.7396 O.2       1 <0>        -0.4947
     20 N3          5.5825   -0.0872    0.9694 N.am      1 <0>        -0.7402
     21 C14         6.7749    0.1145    1.7962 C.3       1 <0>         0.1273
     22 H1          7.6002    0.4495    1.1680 H         1 <0>         0.1123
     23 C15         7.1533   -1.2032    2.4755 C.3       1 <0>        -0.0843
     24 C16         7.5590   -2.2093    1.4294 C.ar      1 <0>        -0.0783
     25 C17         6.6086   -3.0366    0.8608 C.ar      1 <0>        -0.1071
     26 C18         6.9807   -3.9594   -0.0988 C.ar      1 <0>        -0.1102
     27 C19         8.3031   -4.0546   -0.4901 C.ar      1 <0>        -0.1133
     28 C20         9.2533   -3.2267    0.0779 C.ar      1 <0>        -0.1116
     29 C21         8.8805   -2.3009    1.0344 C.ar      1 <0>        -0.1067
     30 C22         6.4834    1.1725    2.8623 C.3       1 <0>         0.0796
     31 H2          7.3949    1.3870    3.4201 H         1 <0>         0.1396
     32 C23         5.9851    2.4522    2.1879 C.3       1 <0>        -0.0566
     33 N4          5.8193    3.5056    3.1983 N.4       1 <0>        -0.4995
     34 C24         5.3408    4.7343    2.5507 C.3       1 <0>         0.0557
     35 C25         6.3592    5.1884    1.5030 C.3       1 <0>        -0.1809
     36 C26         3.9969    4.4629    1.8717 C.3       1 <0>        -0.1804
     37 C27         5.1681    5.8314    3.6031 C.3       1 <0>        -0.1369
     38 C28         4.6699    7.1112    2.9287 C.3       1 <0>        -0.1217
     39 C29         4.4972    8.2082    3.9810 C.3       1 <0>        -0.1167
     40 C30         3.9989    9.4880    3.3066 C.3       1 <0>        -0.0973
     41 C31         2.5995    9.2516    2.7349 C.3       1 <0>        -0.1519
     42 C32         3.9451   10.6190    4.3356 C.3       1 <0>        -0.1527
     43 O4          5.4814    0.6842    3.7565 O.3       1 <0>        -0.5430
     44 H3          1.0039    1.9031    0.0027 H         1 <0>         0.0496
     45 H4         -0.5459    1.8868   -0.8726 H         1 <0>         0.0561
     46 H5         -0.5289    1.8773    0.9072 H         1 <0>         0.0580
     47 H6          0.5293   -0.3651    0.8851 H         1 <0>         0.0724
     48 H7         -1.0205   -0.3814    0.0098 H         1 <0>         0.0760
     49 H8         -0.9362   -0.8226   -2.5991 H         1 <0>         0.1774
     50 H9          3.1421   -0.0871    0.4272 H         1 <0>         0.1316
     51 H10         5.6514   -1.4554   -2.8041 H         1 <0>         0.1474
     52 H11        -0.0397   -2.2296   -4.7908 H         1 <0>         0.1615
     53 H12         0.8728   -0.8078   -5.3632 H         1 <0>         0.1503
     54 H13         5.5081   -2.5802   -5.2417 H         1 <0>         0.0731
     55 H14         4.5329   -1.6872   -6.4332 H         1 <0>         0.0973
     56 H15         5.3214   -0.8160   -5.0962 H         1 <0>         0.0853
     57 H16         4.7039    0.1134    1.3282 H         1 <0>         0.3907
     58 H17         7.9855   -1.0339    3.1588 H         1 <0>         0.0849
     59 H18         6.2972   -1.5836    3.0328 H         1 <0>         0.0842
     60 H19         5.5755   -2.9622    1.1665 H         1 <0>         0.1094
     61 H20         6.2384   -4.6062   -0.5425 H         1 <0>         0.1167
     62 H21         8.5940   -4.7761   -1.2392 H         1 <0>         0.1184
     63 H22        10.2865   -3.3014   -0.2276 H         1 <0>         0.1184
     64 H23         9.6222   -1.6516    1.4754 H         1 <0>         0.1134
     65 H24         6.7106    2.7757    1.4414 H         1 <0>         0.1482
     66 H25         5.0276    2.2589    1.7041 H         1 <0>         0.1374
     67 H26         5.1477    3.2061    3.8892 H         1 <0>         0.4300
     68 H27         6.4822    4.4068    0.7533 H         1 <0>         0.0814
     69 H28         6.0042    6.1001    1.0225 H         1 <0>         0.1087
     70 H29         7.3166    5.3817    1.9868 H         1 <0>         0.0834
     71 H30         3.2715    4.1394    2.6181 H         1 <0>         0.0835
     72 H31         3.6420    5.3746    1.3912 H         1 <0>         0.1086
     73 H32         4.1200    3.6813    1.1219 H         1 <0>         0.0808
     74 H33         4.4427    5.5079    4.3495 H         1 <0>         0.0883
     75 H34         6.1256    6.0248    4.0869 H         1 <0>         0.0881
     76 H35         5.3954    7.4346    2.1823 H         1 <0>         0.0755
     77 H36         3.7124    6.9178    2.4449 H         1 <0>         0.0787
     78 H37         3.7717    7.8848    4.7275 H         1 <0>         0.0665
     79 H38         5.4546    8.4016    4.4648 H         1 <0>         0.0659
     80 H39         4.6792    9.7624    2.5004 H         1 <0>         0.0704
     81 H40         2.2446   10.1633    2.2545 H         1 <0>         0.0583
     82 H41         2.6379    8.4458    2.0019 H         1 <0>         0.0525
     83 H42         1.9193    8.9772    3.5412 H         1 <0>         0.0558
     84 H43         4.9420   10.7874    4.7429 H         1 <0>         0.0556
     85 H44         3.5901   11.5308    3.8551 H         1 <0>         0.0589
     86 H45         3.2648   10.3447    5.1418 H         1 <0>         0.0560
     87 H46         4.6410    0.4721    3.3277 H         1 <0>         0.3848
     88 H47         6.7055    3.6846    3.6461 H         1 <0>         0.4273
@<TRIPOS>BOND
     1    1    2 1
     2    1   44 1
     3    1   45 1
     4    1   46 1
     5    2    3 1
     6    2   47 1
     7    2   48 1
     8    3    7 1
     9    3    4 2
    10    4    5 1
    11    4   49 1
    12    5   16 1
    13    5    6 1
    14    6   11 ar
    15    6    7 ar
    16    7    8 ar
    17    8    9 ar
    18    8   50 1
    19    9   10 ar
    20    9   18 1
    21   10   11 ar
    22   10   51 1
    23   11   12 1
    24   12   13 1
    25   12   17 1
    26   13   14 2
    27   13   15 2
    28   13   16 1
    29   16   52 1
    30   16   53 1
    31   17   54 1
    32   17   55 1
    33   17   56 1
    34   18   19 2
    35   18   20 am
    36   20   21 1
    37   20   57 1
    38   21   22 1
    39   21   23 1
    40   21   30 1
    41   23   24 1
    42   23   58 1
    43   23   59 1
    44   24   29 ar
    45   24   25 ar
    46   25   26 ar
    47   25   60 1
    48   26   27 ar
    49   26   61 1
    50   27   28 ar
    51   27   62 1
    52   28   29 ar
    53   28   63 1
    54   29   64 1
    55   30   31 1
    56   30   32 1
    57   30   43 1
    58   32   33 1
    59   32   65 1
    60   32   66 1
    61   33   34 1
    62   33   67 1
    63   33   88 1
    64   34   35 1
    65   34   36 1
    66   34   37 1
    67   35   68 1
    68   35   69 1
    69   35   70 1
    70   36   71 1
    71   36   72 1
    72   36   73 1
    73   37   38 1
    74   37   74 1
    75   37   75 1
    76   38   39 1
    77   38   76 1
    78   38   77 1
    79   39   40 1
    80   39   78 1
    81   39   79 1
    82   40   41 1
    83   40   42 1
    84   40   80 1
    85   41   81 1
    86   41   82 1
    87   41   83 1
    88   42   84 1
    89   42   85 1
    90   42   86 1
    91   43   87 1
@<TRIPOS>MOLECULE
CHEMBL490304
   76    76     0     0     0
SMALL
NO_CHARGES

@<TRIPOS>ATOM
      1 C1          0.2680    1.7365   -0.2052 C.3       1 <0>        -0.1532
      2 C2          0.2578    0.2067   -0.1807 C.3       1 <0>        -0.1222
      3 C3          0.9527   -0.3281   -1.4345 C.3       1 <0>        -0.1319
      4 C4          0.9426   -1.8578   -1.4100 C.3       1 <0>         0.1170
      5 N1          1.6080   -2.3699   -2.6105 N.am      1 <0>        -0.7332
      6 C5          1.7184   -3.6990   -2.8047 C.2       1 <0>         0.5143
      7 O1          1.2669   -4.4711   -1.9856 O.2       1 <0>        -0.5349
      8 C6          2.4029   -4.2257   -4.0397 C.3       1 <0>        -0.1079
      9 H1          3.4328   -3.8696   -4.0641 H         1 <0>         0.1037
     10 C7          1.6623   -3.7307   -5.2836 C.3       1 <0>        -0.1454
     11 C8          2.3927   -5.7555   -4.0151 C.3       1 <0>        -0.1246
     12 C9          3.1950   -6.2900   -5.2033 C.3       1 <0>         0.0973
     13 H2          2.8007   -5.8675   -6.1275 H         1 <0>         0.1021
     14 C10         3.0816   -7.8150   -5.2506 C.3       1 <0>         0.1054
     15 H3          3.4755   -8.2395   -4.3271 H         1 <0>         0.1010
     16 C11         3.8772   -8.3518   -6.4421 C.3       1 <0>        -0.1201
     17 C12         3.1802   -9.5925   -7.0039 C.3       1 <0>        -0.0842
     18 H4          2.7134  -10.1469   -6.1898 H         1 <0>         0.0694
     19 C13         4.2093  -10.4829   -7.7031 C.3       1 <0>        -0.1150
     20 C14         3.5621  -11.1550   -8.9157 C.3       1 <0>        -0.1417
     21 C15         2.9850  -12.5097   -8.5003 C.3       1 <0>        -0.1200
     22 C16         1.4567  -12.4383   -8.5121 C.3       1 <0>        -0.1324
     23 C17         0.8929  -13.4057   -7.4696 C.3       1 <0>        -0.1195
     24 C18        -0.5567  -13.0300   -7.1561 C.3       1 <0>        -0.1208
     25 C19        -0.6680  -12.6047   -5.6906 C.3       1 <0>        -0.1455
     26 C20        -0.5923  -11.1026   -5.5964 C.2       1 <0>         0.5179
     27 O2         -0.6254  -10.4158   -6.5954 O.2       1 <0>        -0.5224
     28 N2         -0.4856  -10.5305   -4.3551 N.am      1 <0>        -0.7280
     29 C21        -0.4155   -9.0473   -4.3723 C.3       1 <0>         0.1166
     30 H5         -0.8481   -8.6702   -5.2989 H         1 <0>         0.1132
     31 C22         1.0323   -8.6383   -4.2847 C.2       1 <0>         0.5054
     32 O3          1.6264   -8.6965   -3.2290 O.2       1 <0>        -0.5238
     33 N3          1.6633   -8.2020   -5.4087 N.am      1 <0>        -0.7208
     34 C23        -1.1847   -8.4813   -3.1769 C.3       1 <0>        -0.1520
     35 C24         2.1092   -9.1645   -8.0092 C.3       1 <0>        -0.1587
     36 O4          4.5672   -5.9186   -5.0572 O.3       1 <0>        -0.5540
     37 H6          1.2978    2.0927   -0.2297 H         1 <0>         0.0547
     38 H7         -0.2596    2.0892   -1.0914 H         1 <0>         0.0545
     39 H8         -0.2271    2.1175    0.6880 H         1 <0>         0.0567
     40 H9          0.7854   -0.1460    0.7055 H         1 <0>         0.0653
     41 H10        -0.7720   -0.1494   -0.1562 H         1 <0>         0.0651
     42 H11         0.4252    0.0246   -2.3207 H         1 <0>         0.0689
     43 H12         1.9826    0.0281   -1.4590 H         1 <0>         0.0691
     44 H13         1.4702   -2.2105   -0.5238 H         1 <0>         0.0667
     45 H14        -0.0873   -2.2140   -1.3855 H         1 <0>         0.0665
     46 H15         1.9691   -1.7523   -3.2656 H         1 <0>         0.4000
     47 H16         1.6696   -2.6409   -5.3011 H         1 <0>         0.0598
     48 H17         2.1574   -4.1117   -6.1768 H         1 <0>         0.0706
     49 H18         0.6325   -4.0869   -5.2591 H         1 <0>         0.0593
     50 H19         2.8416   -6.1070   -3.0861 H         1 <0>         0.0776
     51 H20         1.3651   -6.1131   -4.0803 H         1 <0>         0.0754
     52 H21         3.9344   -7.5858   -7.2154 H         1 <0>         0.0716
     53 H22         4.8836   -8.6161   -6.1175 H         1 <0>         0.0737
     54 H23         5.0523   -9.8750   -8.0315 H         1 <0>         0.0601
     55 H24         4.5605  -11.2464   -7.0090 H         1 <0>         0.0598
     56 H25         2.7622  -10.5212   -9.2985 H         1 <0>         0.0862
     57 H26         4.3122  -11.3024   -9.6928 H         1 <0>         0.0554
     58 H27         3.3183  -13.2765   -9.1997 H         1 <0>         0.0551
     59 H28         3.3293  -12.7590   -7.4967 H         1 <0>         0.0600
     60 H29         1.1386  -11.4230   -8.2753 H         1 <0>         0.0833
     61 H30         1.0877  -12.7134   -9.5002 H         1 <0>         0.0575
     62 H31         0.9282  -14.4225   -7.8608 H         1 <0>         0.0593
     63 H32         1.4887  -13.3460   -6.5588 H         1 <0>         0.0597
     64 H33        -0.8652  -12.2050   -7.7982 H         1 <0>         0.0890
     65 H34        -1.2018  -13.8902   -7.3348 H         1 <0>         0.0668
     66 H35        -1.6198  -12.9468   -5.2843 H         1 <0>         0.0961
     67 H36         0.1499  -13.0462   -5.1211 H         1 <0>         0.0934
     68 H37        -0.4584  -11.0498   -3.5362 H         1 <0>         0.4159
     69 H38         1.2075   -8.1483   -6.2632 H         1 <0>         0.4131
     70 H39        -0.7439   -8.8533   -2.2521 H         1 <0>         0.0736
     71 H40        -1.1310   -7.3927   -3.1928 H         1 <0>         0.0742
     72 H41        -2.2271   -8.7946   -3.2343 H         1 <0>         0.0709
     73 H42         2.5714   -8.9925   -8.9813 H         1 <0>         0.0625
     74 H43         1.3590   -9.9502   -8.0975 H         1 <0>         0.0793
     75 H44         1.6343   -8.2457   -7.6651 H         1 <0>         0.0457
     76 H45         4.9839   -6.2607   -4.2545 H         1 <0>         0.3767
@<TRIPOS>BOND
     1    1    2 1
     2    1   37 1
     3    1   38 1
     4    1   39 1
     5    2    3 1
     6    2   40 1
     7    2   41 1
     8    3    4 1
     9    3   42 1
    10    3   43 1
    11    4    5 1
    12    4   44 1
    13    4   45 1
    14    5    6 am
    15    5   46 1
    16    6    7 2
    17    6    8 1
    18    8    9 1
    19    8   10 1
    20    8   11 1
    21   10   47 1
    22   10   48 1
    23   10   49 1
    24   11   12 1
    25   11   50 1
    26   11   51 1
    27   12   13 1
    28   12   14 1
    29   12   36 1
    30   14   15 1
    31   14   33 1
    32   14   16 1
    33   16   17 1
    34   16   52 1
    35   16   53 1
    36   17   18 1
    37   17   19 1
    38   17   35 1
    39   19   20 1
    40   19   54 1
    41   19   55 1
    42   20   21 1
    43   20   56 1
    44   20   57 1
    45   21   22 1
    46   21   58 1
    47   21   59 1
    48   22   23 1
    49   22   60 1
    50   22   61 1
    51   23   24 1
    52   23   62 1
    53   23   63 1
    54   24   25 1
    55   24   64 1
    56   24   65 1
    57   25   26 1
    58   25   66 1
    59   25   67 1
    60   26   27 2
    61   26   28 am
    62   28   29 1
    63   28   68 1
    64   29   30 1
    65   29   31 1
    66   29   34 1
    67   31   32 2
    68   31   33 am
    69   33   69 1
    70   34   70 1
    71   34   71 1
    72   34   72 1
    73   35   73 1
    74   35   74 1
    75   35   75 1
    76   36   76 1
@<TRIPOS>MOLECULE
CHEMBL584694
   54    58     0     0     0
SMALL
USER_CHARGES

@<TRIPOS>ATOM
      1 C1          0.1707    1.4051   -0.4098 C.3       1 <0>         0.0626
      2 N1          0.1149   -0.0506   -0.2548 N.am      1 <0>        -0.5550
      3 C2         -1.0231   -0.7681   -0.1456 C.2       1 <0>         0.5414
      4 O1         -2.1616   -0.3510   -0.1562 O.2       1 <0>        -0.3897
      5 C3         -0.5701   -2.2081   -0.0072 C.3       1 <0>         0.1771
      6 N2          0.8982   -2.1235   -0.0596 N.pl3     1 <0>        -0.6214
      7 C4          1.2127   -0.8735   -0.2065 C.cat     1 <0>         0.7285
      8 N3          2.5071   -0.4209   -0.3000 N.pl3     1 <0>        -0.7815
      9 C5         -1.0929   -3.0391   -1.1506 C.ar      1 <0>        -0.1599
     10 C6         -2.3708   -2.8237   -1.6324 C.ar      1 <0>        -0.0554
     11 C7         -2.8526   -3.5844   -2.6801 C.ar      1 <0>        -0.1403
     12 C8         -2.0528   -4.5648   -3.2491 C.ar      1 <0>         0.1602
     13 C9         -0.7708   -4.7787   -2.7641 C.ar      1 <0>        -0.2031
     14 C10        -0.2918   -4.0118   -1.7196 C.ar      1 <0>        -0.0557
     15 O2         -2.5246   -5.3147   -4.2796 O.3       1 <0>        -0.3071
     16 C11        -1.6460   -6.3058   -4.8162 C.3       1 <0>         0.0219
     17 C12        -1.0269   -2.7883    1.3327 C.3       1 <0>        -0.0408
     18 C13        -0.4553   -4.1977    1.4997 C.3       1 <0>        -0.1026
     19 C14        -0.9122   -4.7779    2.8397 C.3       1 <0>        -0.0831
     20 C15        -2.4406   -4.8400    2.8741 C.3       1 <0>        -0.1134
     21 C16        -3.0121   -3.4306    2.7071 C.3       1 <0>        -0.0827
     22 C17        -2.5553   -2.8504    1.3671 C.3       1 <0>        -0.1124
     23 C18        -2.5122   -2.5393    3.8457 C.3       1 <0>        -0.1144
     24 C19        -0.9839   -2.4772    3.8114 C.3       1 <0>        -0.0806
     25 C20        -0.4123   -3.8865    3.9784 C.3       1 <0>        -0.1123
     26 C21        -0.5270   -1.8970    2.4714 C.3       1 <0>        -0.1118
     27 H1          1.2108    1.7235   -0.4791 H         1 <0>         0.0993
     28 H2         -0.3591    1.6944   -1.3174 H         1 <0>         0.1082
     29 H3         -0.2982    1.8805    0.4518 H         1 <0>         0.1084
     30 H4          2.6830    0.5271   -0.4060 H         1 <0>         0.4430
     31 H5          3.2448   -1.0495   -0.2599 H         1 <0>         0.4456
     32 H6         -2.9930   -2.0603   -1.1891 H         1 <0>         0.1471
     33 H7         -3.8511   -3.4162   -3.0557 H         1 <0>         0.1458
     34 H8         -0.1462   -5.5413   -3.2054 H         1 <0>         0.1406
     35 H9          0.7078   -4.1749   -1.3446 H         1 <0>         0.1210
     36 H10        -0.7432   -5.8252   -5.1931 H         1 <0>         0.0601
     37 H11        -1.3797   -7.0170   -4.0343 H         1 <0>         0.0617
     38 H12        -2.1450   -6.8311   -5.6305 H         1 <0>         0.1101
     39 H13        -0.8115   -4.8327    0.6885 H         1 <0>         0.0807
     40 H14         0.6335   -4.1534    1.4753 H         1 <0>         0.0583
     41 H15        -0.5050   -5.7819    2.9587 H         1 <0>         0.0810
     42 H16        -2.7967   -5.4749    2.0629 H         1 <0>         0.0672
     43 H17        -2.7660   -5.2533    3.8287 H         1 <0>         0.0715
     44 H18        -4.1010   -3.4748    2.7315 H         1 <0>         0.0831
     45 H19        -2.9625   -1.8464    1.2481 H         1 <0>         0.0800
     46 H20        -2.9114   -3.4854    0.5559 H         1 <0>         0.0813
     47 H21        -2.9194   -1.5352    3.7268 H         1 <0>         0.0653
     48 H22        -2.8377   -2.9526    4.8004 H         1 <0>         0.0729
     49 H23        -0.6277   -1.8422    4.6226 H         1 <0>         0.0790
     50 H24        -0.7378   -4.2999    4.9330 H         1 <0>         0.0732
     51 H25         0.6765   -3.8423    3.9539 H         1 <0>         0.0622
     52 H26         0.5618   -1.8528    2.4469 H         1 <0>         0.0606
     53 H27        -0.9342   -0.8929    2.3525 H         1 <0>         0.0625
     54 H28         1.5178   -2.8673    0.0005 H         1 <0>         0.4618
@<TRIPOS>BOND
     1    1    2 1
     2    1   27 1
     3    1   28 1
     4    1   29 1
     5    2    7 1
     6    2    3 am
     7    3    4 2
     8    3    5 1
     9    5    6 1
    10    5    9 1
    11    5   17 1
    12    6    7 2
    13    6   54 1
    14    7    8 1
    15    8   30 1
    16    8   31 1
    17    9   14 ar
    18    9   10 ar
    19   10   11 ar
    20   10   32 1
    21   11   12 ar
    22   11   33 1
    23   12   13 ar
    24   12   15 1
    25   13   14 ar
    26   13   34 1
    27   14   35 1
    28   15   16 1
    29   16   36 1
    30   16   37 1
    31   16   38 1
    32   17   22 1
    33   17   26 1
    34   17   18 1
    35   18   19 1
    36   18   39 1
    37   18   40 1
    38   19   25 1
    39   19   20 1
    40   19   41 1
    41   20   21 1
    42   20   42 1
    43   20   43 1
    44   21   22 1
    45   21   23 1
    46   21   44 1
    47   22   45 1
    48   22   46 1
    49   23   24 1
    50   23   47 1
    51   23   48 1
    52   24   25 1
    53   24   26 1
    54   24   49 1
    55   25   50 1
    56   25   51 1
    57   26   52 1
    58   26   53 1
@<TRIPOS>MOLECULE
CHEMBL567477
   52    55     0     0     0
SMALL
USER_CHARGES

@<TRIPOS>ATOM
      1 C1         -2.7537    0.7462   -0.3678 C.3       1 <0>        -0.1122
      2 C2         -1.6315   -0.2568   -0.2916 C.ar      1 <0>        -0.1058
      3 C3         -1.3291   -1.0406   -1.3884 C.ar      1 <0>        -0.0601
      4 C4         -0.3001   -1.9613   -1.3190 C.ar      1 <0>        -0.1583
      5 C5          0.4292   -2.0998   -0.1523 C.ar      1 <0>        -0.0582
      6 C6          0.1311   -1.3183    0.9468 C.ar      1 <0>        -0.1933
      7 C7         -0.8977   -0.3898    0.8780 C.ar      1 <0>         0.1576
      8 O1         -1.1893    0.3843    1.9562 O.3       1 <0>        -0.3050
      9 C8         -0.3922    0.1931    3.1267 C.3       1 <0>         0.0208
     10 C9          0.0269   -2.8156   -2.5165 C.3       1 <0>         0.2402
     11 C10         1.5223   -2.8498   -2.7493 C.2       1 <0>         0.5435
     12 O2          2.3655   -3.2713   -1.9867 O.2       1 <0>        -0.3926
     13 N1          1.7322   -2.3206   -3.9694 N.am      1 <0>        -0.5523
     14 C11         0.5500   -1.9455   -4.5596 C.cat     1 <0>         0.7339
     15 N2         -0.5207   -2.2134   -3.7429 N.pl3     1 <0>        -0.6659
     16 N3          0.4569   -1.4054   -5.7405 N.pl3     1 <0>        -0.7315
     17 C12         3.0513   -2.1651   -4.5876 C.3       1 <0>         0.0555
     18 C13        -0.5114   -4.2107   -2.3293 C.ar      1 <0>        -0.1259
     19 C14         0.0535   -5.0470   -1.3829 C.ar      1 <0>        -0.0529
     20 C15        -0.4345   -6.3283   -1.2050 C.ar      1 <0>        -0.1361
     21 C16        -1.4916   -6.7805   -1.9730 C.ar      1 <0>         0.1475
     22 C17        -2.0647   -5.9403   -2.9284 C.ar      1 <0>        -0.0721
     23 C18        -1.5703   -4.6487   -3.0984 C.ar      1 <0>        -0.0532
     24 C19        -3.1988   -6.4186   -3.7566 C.ar      1 <0>        -0.1424
     25 C20        -3.0535   -6.5746   -5.1368 C.ar      1 <0>        -0.0295
     26 C21        -4.1418   -7.0245   -5.8657 C.ar      1 <0>        -0.1812
     27 C22        -5.3272   -7.3027   -5.2112 C.ar      1 <0>         0.1532
     28 N4         -5.4370   -7.1464   -3.9057 N.ar      1 <0>        -0.5059
     29 C23        -4.4272   -6.7257   -3.1682 C.ar      1 <0>         0.3340
     30 F1         -4.5846   -6.5862   -1.8337 F         1 <0>        -0.1022
     31 F2         -1.9681   -8.0327   -1.7993 F         1 <0>        -0.1172
     32 H1         -2.3639    1.7015   -0.7194 H         1 <0>         0.0746
     33 H2         -3.5152    0.3875   -1.0603 H         1 <0>         0.0690
     34 H3         -3.1937    0.8751    0.6211 H         1 <0>         0.0790
     35 H4         -1.8973   -0.9343   -2.3007 H         1 <0>         0.1252
     36 H5          1.2324   -2.8200   -0.1004 H         1 <0>         0.1399
     37 H6          0.7010   -1.4269    1.8578 H         1 <0>         0.1431
     38 H7          0.6523    0.3985    2.8926 H         1 <0>         0.0612
     39 H8         -0.7291    0.8715    3.9106 H         1 <0>         0.1100
     40 H9         -0.4918   -0.8367    3.4699 H         1 <0>         0.0623
     41 H10         1.2570   -1.2441   -6.2646 H         1 <0>         0.4500
     42 H11         3.2917   -3.0604   -5.1609 H         1 <0>         0.1040
     43 H12         3.0418   -1.3004   -5.2512 H         1 <0>         0.1007
     44 H13         3.8017   -2.0187   -3.8107 H         1 <0>         0.1214
     45 H14         0.8793   -4.6976   -0.7810 H         1 <0>         0.1489
     46 H15         0.0108   -6.9770   -0.4652 H         1 <0>         0.1563
     47 H16        -2.0126   -3.9926   -3.8334 H         1 <0>         0.1320
     48 H17        -2.1161   -6.3498   -5.6237 H         1 <0>         0.1456
     49 H18        -4.0652   -7.1563   -6.9348 H         1 <0>         0.1531
     50 H19        -6.1772   -7.6533   -5.7777 H         1 <0>         0.1763
     51 H20        -1.4553   -2.0401   -3.9364 H         1 <0>         0.4629
     52 H21        -0.4127   -1.1643   -6.0963 H         1 <0>         0.4524
@<TRIPOS>BOND
     1    1    2 1
     2    1   32 1
     3    1   33 1
     4    1   34 1
     5    2    7 ar
     6    2    3 ar
     7    3    4 ar
     8    3   35 1
     9    4    5 ar
    10    4   10 1
    11    5    6 ar
    12    5   36 1
    13    6    7 ar
    14    6   37 1
    15    7    8 1
    16    8    9 1
    17    9   38 1
    18    9   39 1
    19    9   40 1
    20   10   15 1
    21   10   11 1
    22   10   18 1
    23   11   12 2
    24   11   13 am
    25   13   14 1
    26   13   17 1
    27   14   15 1
    28   14   16 2
    29   15   51 1
    30   16   41 1
    31   16   52 1
    32   17   42 1
    33   17   43 1
    34   17   44 1
    35   18   23 ar
    36   18   19 ar
    37   19   20 ar
    38   19   45 1
    39   20   21 ar
    40   20   46 1
    41   21   22 ar
    42   21   31 1
    43   22   23 ar
    44   22   24 1
    45   23   47 1
    46   24   29 ar
    47   24   25 ar
    48   25   26 ar
    49   25   48 1
    50   26   27 ar
    51   26   49 1
    52   27   28 ar
    53   27   50 1
    54   28   29 ar
    55   29   30 1
@<TRIPOS>MOLECULE
CHEMBL567477__1
   52    55     0     0     0
SMALL
USER_CHARGES

@<TRIPOS>ATOM
      1 C1         -2.1689    0.5462    0.4687 C.3       1 <0>        -0.1130
      2 C2         -1.0663   -0.4488    0.2132 C.ar      1 <0>        -0.1035
      3 C3         -1.0255   -1.1443   -0.9799 C.ar      1 <0>        -0.0604
      4 C4         -0.0146   -2.0576   -1.2147 C.ar      1 <0>        -0.1602
      5 C5          0.9583   -2.2771   -0.2568 C.ar      1 <0>        -0.0598
      6 C6          0.9223   -1.5840    0.9374 C.ar      1 <0>        -0.1920
      7 C7         -0.0883   -0.6630    1.1733 C.ar      1 <0>         0.1595
      8 O1         -0.1229    0.0244    2.3452 O.3       1 <0>        -0.3042
      9 C8          0.9165   -0.2473    3.2875 C.3       1 <0>         0.0204
     10 C9          0.0269   -2.8156   -2.5165 C.3       1 <0>         0.2300
     11 C10         1.4390   -2.8503   -3.0671 C.2       1 <0>         0.5438
     12 O2          2.4200   -3.3410   -2.5504 O.2       1 <0>        -0.3856
     13 N1          1.3679   -2.2173   -4.2570 N.am      1 <0>        -0.5522
     14 C11         0.0848   -1.7972   -4.5061 C.cat     1 <0>         0.7331
     15 N2         -0.7392   -2.1048   -3.5526 N.pl3     1 <0>        -0.6263
     16 N3         -0.2870   -1.1223   -5.6443 N.pl3     1 <0>        -0.7760
     17 C12         2.5034   -2.0073   -5.1585 C.3       1 <0>         0.0580
     18 C13        -0.5057   -4.2130   -2.3304 C.ar      1 <0>        -0.1287
     19 C14         0.0639   -5.0484   -1.3860 C.ar      1 <0>        -0.0449
     20 C15        -0.4188   -6.3318   -1.2089 C.ar      1 <0>        -0.1358
     21 C16        -1.4754   -6.7871   -1.9760 C.ar      1 <0>         0.1502
     22 C17        -2.0532   -5.9478   -2.9293 C.ar      1 <0>        -0.0708
     23 C18        -1.5641   -4.6541   -3.0983 C.ar      1 <0>        -0.0580
     24 C19        -3.1867   -6.4294   -3.7563 C.ar      1 <0>        -0.1438
     25 C20        -3.0431   -6.5831   -5.1370 C.ar      1 <0>        -0.0292
     26 C21        -4.1307   -7.0362   -5.8647 C.ar      1 <0>        -0.1808
     27 C22        -5.3140   -7.3199   -5.2088 C.ar      1 <0>         0.1538
     28 N4         -5.4224   -7.1657   -3.9029 N.ar      1 <0>        -0.5058
     29 C23        -4.4131   -6.7421   -3.1665 C.ar      1 <0>         0.3341
     30 F1         -4.5689   -6.6050   -1.8315 F         1 <0>        -0.1023
     31 F2         -1.9467   -8.0414   -1.8031 F         1 <0>        -0.1161
     32 H1         -1.8612    1.5291    0.1119 H         1 <0>         0.0754
     33 H2         -3.0699    0.2337   -0.0592 H         1 <0>         0.0698
     34 H3         -2.3731    0.5956    1.5383 H         1 <0>         0.0798
     35 H4         -1.7842   -0.9747   -1.7296 H         1 <0>         0.1252
     36 H5          1.7469   -2.9914   -0.4425 H         1 <0>         0.1417
     37 H6          1.6823   -1.7558    1.6852 H         1 <0>         0.1444
     38 H7          1.8827   -0.0146    2.8398 H         1 <0>         0.0617
     39 H8          0.7706    0.3665    4.1763 H         1 <0>         0.1105
     40 H9          0.8890   -1.3010    3.5651 H         1 <0>         0.0628
     41 H10         0.3733   -0.9191   -6.3251 H         1 <0>         0.4454
     42 H11        -1.2097   -0.8493   -5.7667 H         1 <0>         0.4469
     43 H12         2.5823   -2.8496   -5.8458 H         1 <0>         0.1030
     44 H13         2.3522   -1.0887   -5.7254 H         1 <0>         0.1016
     45 H14         3.4206   -1.9274   -4.5750 H         1 <0>         0.1197
     46 H15         0.8893   -4.6966   -0.7848 H         1 <0>         0.1483
     47 H16         0.0302   -6.9798   -0.4707 H         1 <0>         0.1576
     48 H17        -2.0101   -3.9988   -3.8318 H         1 <0>         0.1313
     49 H18        -2.1073   -6.3539   -5.6250 H         1 <0>         0.1459
     50 H19        -4.0552   -7.1663   -6.9342 H         1 <0>         0.1535
     51 H20        -6.1635   -7.6730   -5.7744 H         1 <0>         0.1767
     52 H21        -1.6877   -1.9034   -3.5273 H         1 <0>         0.4653
@<TRIPOS>BOND
     1    1    2 1
     2    1   32 1
     3    1   33 1
     4    1   34 1
     5    2    7 ar
     6    2    3 ar
     7    3    4 ar
     8    3   35 1
     9    4    5 ar
    10    4   10 1
    11    5    6 ar
    12    5   36 1
    13    6    7 ar
    14    6   37 1
    15    7    8 1
    16    8    9 1
    17    9   38 1
    18    9   39 1
    19    9   40 1
    20   10   15 1
    21   10   11 1
    22   10   18 1
    23   11   12 2
    24   11   13 am
    25   13   14 1
    26   13   17 1
    27   14   15 2
    28   14   16 1
    29   15   52 1
    30   16   41 1
    31   16   42 1
    32   17   43 1
    33   17   44 1
    34   17   45 1
    35   18   23 ar
    36   18   19 ar
    37   19   20 ar
    38   19   46 1
    39   20   21 ar
    40   20   47 1
    41   21   22 ar
    42   21   31 1
    43   22   23 ar
    44   22   24 1
    45   23   48 1
    46   24   29 ar
    47   24   25 ar
    48   25   26 ar
    49   25   49 1
    50   26   27 ar
    51   26   50 1
    52   27   28 ar
    53   27   51 1
    54   28   29 ar
    55   29   30 1
@<TRIPOS>MOLECULE
CHEMBL507571
   84    87     0     0     0
SMALL
USER_CHARGES

@<TRIPOS>ATOM
      1 C1          0.2970   -5.6393   -4.7588 C.3       1 <0>        -0.1534
      2 C2         -0.5662   -5.4920   -3.5042 C.3       1 <0>        -0.1477
      3 C3          0.0243   -4.4052   -2.6036 C.3       1 <0>         0.0957
      4 N1         -0.8805   -4.1589   -1.4780 N.am      1 <0>        -0.6064
      5 C4         -0.8796   -5.0639   -0.3259 C.3       1 <0>         0.1136
      6 C5          0.1314   -4.5693    0.7104 C.3       1 <0>        -0.1397
      7 C6          0.1323   -5.5144    1.9136 C.3       1 <0>        -0.1495
      8 C7         -1.7136   -3.0997   -1.5023 C.2       1 <0>         0.5611
      9 O1         -2.5167   -2.9374   -0.6044 O.2       1 <0>        -0.5245
     10 C8         -1.6506   -2.1351   -2.6212 C.ar      1 <0>        -0.1294
     11 C9         -1.6264   -2.5940   -3.9405 C.ar      1 <0>        -0.0764
     12 C10        -1.5676   -1.6947   -4.9863 C.ar      1 <0>        -0.0939
     13 C11        -1.5323   -0.3369   -4.7365 C.ar      1 <0>        -0.0673
     14 C12        -1.5555    0.1352   -3.4223 C.ar      1 <0>        -0.1336
     15 C13        -1.6211   -0.7668   -2.3623 C.ar      1 <0>        -0.0150
     16 C14        -1.5166    1.5893   -3.1565 C.2       1 <0>         0.5637
     17 O2         -1.4372    1.9964   -2.0140 O.2       1 <0>        -0.5171
     18 N2         -1.5693    2.4632   -4.1812 N.am      1 <0>        -0.7203
     19 C15        -1.3933    3.8960   -3.9316 C.3       1 <0>         0.1231
     20 H1         -1.6887    4.1255   -2.9079 H         1 <0>         0.1252
     21 C16         0.0757    4.2724   -4.1350 C.3       1 <0>        -0.1012
     22 C17         0.9176    3.5966   -3.0836 C.ar      1 <0>        -0.0143
     23 C18         1.0547    4.1714   -1.8342 C.ar      1 <0>        -0.1456
     24 C19         1.8285    3.5516   -0.8675 C.ar      1 <0>         0.1386
     25 C20         2.4644    2.3557   -1.1526 C.ar      1 <0>        -0.1950
     26 C21         2.3260    1.7807   -2.4041 C.ar      1 <0>         0.1336
     27 C22         1.5475    2.3997   -3.3676 C.ar      1 <0>        -0.1605
     28 F1          2.9461    0.6134   -2.6837 F         1 <0>        -0.1324
     29 F2          1.9630    4.1142    0.3534 F         1 <0>        -0.1308
     30 C23        -2.2636    4.6939   -4.9047 C.3       1 <0>         0.1206
     31 H2         -3.2987    4.3623   -4.8221 H         1 <0>         0.1077
     32 C24        -2.1763    6.1829   -4.5638 C.3       1 <0>         0.0436
     33 H3         -1.1408    6.5129   -4.6468 H         1 <0>         0.1198
     34 C25        -3.0276    6.9650   -5.5235 C.2       1 <0>         0.4817
     35 O3         -2.9967    6.6714   -6.6999 O.2       1 <0>        -0.5104
     36 N3         -3.8183    7.9709   -5.1350 N.am      1 <0>        -0.6059
     37 C26        -3.9553    8.3793   -3.7399 C.3       1 <0>         0.0717
     38 C27        -2.7853    7.8364   -2.9173 C.3       1 <0>         0.0419
     39 N4         -2.6475    6.3967   -3.1889 N.3       1 <0>        -0.6670
     40 C28        -4.5806    8.6959   -6.1545 C.3       1 <0>         0.1419
     41 C29        -5.9418    8.0243   -6.3471 C.3       1 <0>        -0.1719
     42 C30        -6.2391    7.4103   -7.7166 C.3       1 <0>        -0.1662
     43 C31        -6.9373    8.7031   -7.2900 C.3       1 <0>        -0.1762
     44 O4         -1.8011    4.4831   -6.2402 O.3       1 <0>        -0.5304
     45 C32        -1.5412   -2.1969   -6.4069 C.3       1 <0>        -0.1172
     46 H4         -0.0724   -6.4712   -5.3584 H         1 <0>         0.0613
     47 H5          0.2483   -4.7205   -5.3432 H         1 <0>         0.0577
     48 H6          1.3300   -5.8310   -4.4687 H         1 <0>         0.0597
     49 H7         -1.5804   -5.2144   -3.7914 H         1 <0>         0.0686
     50 H8         -0.5876   -6.4389   -2.9647 H         1 <0>         0.0707
     51 H9          0.9930   -4.7327   -2.2262 H         1 <0>         0.0806
     52 H10         0.1494   -3.4866   -3.1769 H         1 <0>         0.0906
     53 H11        -1.8744   -5.0865    0.1190 H         1 <0>         0.0868
     54 H12        -0.6045   -6.0669   -0.6520 H         1 <0>         0.0791
     55 H13         1.1262   -4.5466    0.2655 H         1 <0>         0.0628
     56 H14        -0.1437   -3.5662    1.0365 H         1 <0>         0.0660
     57 H15        -0.8625   -5.5371    2.3585 H         1 <0>         0.0575
     58 H16         0.4074   -6.5174    1.5875 H         1 <0>         0.0554
     59 H17         0.8526   -5.1621    2.6519 H         1 <0>         0.0582
     60 H18        -1.6534   -3.6545   -4.1427 H         1 <0>         0.1432
     61 H19        -1.4863    0.3613   -5.5591 H         1 <0>         0.1313
     62 H20        -1.6441   -0.4067   -1.3443 H         1 <0>         0.1420
     63 H21        -1.7238    2.1435   -5.0839 H         1 <0>         0.4042
     64 H22         0.4002    3.9484   -5.1239 H         1 <0>         0.0846
     65 H23         0.1887    5.3533   -4.0516 H         1 <0>         0.0952
     66 H24         0.5585    5.1046   -1.6120 H         1 <0>         0.1431
     67 H25         3.0683    1.8717   -0.3993 H         1 <0>         0.1451
     68 H26         1.4359    1.9490   -4.3427 H         1 <0>         0.1356
     69 H27        -3.9645    9.4677   -3.6809 H         1 <0>         0.0837
     70 H28        -4.8909    7.9893   -3.3391 H         1 <0>         0.0685
     71 H29        -1.8682    8.3526   -3.2011 H         1 <0>         0.0865
     72 H30        -2.9813    7.9914   -1.8563 H         1 <0>         0.1057
     73 H31        -3.5171    5.9119   -3.0251 H         1 <0>         0.3513
     74 H32        -4.7265    9.7275   -5.8340 H         1 <0>         0.0800
     75 H33        -4.0322    8.6822   -7.0964 H         1 <0>         0.0877
     76 H34        -6.3444    7.5178   -5.4700 H         1 <0>         0.1005
     77 H35        -5.4650    7.4848   -8.4804 H         1 <0>         0.0978
     78 H36        -6.8374    6.4995   -7.7406 H         1 <0>         0.0911
     79 H37        -7.9950    8.6428   -7.0333 H         1 <0>         0.0951
     80 H38        -6.6226    9.6281   -7.7731 H         1 <0>         0.0954
     81 H39        -0.8851    4.7562   -6.3869 H         1 <0>         0.3746
     82 H40        -2.5616   -2.2861   -6.7797 H         1 <0>         0.0759
     83 H41        -0.9867   -1.4953   -7.0301 H         1 <0>         0.0721
     84 H42        -1.0563   -3.1726   -6.4384 H         1 <0>         0.0708
@<TRIPOS>BOND
     1    1    2 1
     2    1   46 1
     3    1   47 1
     4    1   48 1
     5    2    3 1
     6    2   49 1
     7    2   50 1
     8    3    4 1
     9    3   51 1
    10    3   52 1
    11    4    5 1
    12    4    8 am
    13    5    6 1
    14    5   53 1
    15    5   54 1
    16    6    7 1
    17    6   55 1
    18    6   56 1
    19    7   57 1
    20    7   58 1
    21    7   59 1
    22    8    9 2
    23    8   10 1
    24   10   15 ar
    25   10   11 ar
    26   11   12 ar
    27   11   60 1
    28   12   13 ar
    29   12   45 1
    30   13   14 ar
    31   13   61 1
    32   14   15 ar
    33   14   16 1
    34   15   62 1
    35   16   17 2
    36   16   18 am
    37   18   19 1
    38   18   63 1
    39   19   20 1
    40   19   21 1
    41   19   30 1
    42   21   22 1
    43   21   64 1
    44   21   65 1
    45   22   27 ar
    46   22   23 ar
    47   23   24 ar
    48   23   66 1
    49   24   25 ar
    50   24   29 1
    51   25   26 ar
    52   25   67 1
    53   26   27 ar
    54   26   28 1
    55   27   68 1
    56   30   31 1
    57   30   32 1
    58   30   44 1
    59   32   33 1
    60   32   39 1
    61   32   34 1
    62   34   35 2
    63   34   36 am
    64   36   37 1
    65   36   40 1
    66   37   38 1
    67   37   69 1
    68   37   70 1
    69   38   39 1
    70   38   71 1
    71   38   72 1
    72   39   73 1
    73   40   41 1
    74   40   74 1
    75   40   75 1
    76   41   43 1
    77   41   42 1
    78   41   76 1
    79   42   43 1
    80   42   77 1
    81   42   78 1
    82   43   79 1
    83   43   80 1
    84   44   81 1
    85   45   82 1
    86   45   83 1
    87   45   84 1
@<TRIPOS>MOLECULE
CHEMBL507571__1
   85    88     0     0     0
SMALL
USER_CHARGES

@<TRIPOS>ATOM
      1 C1         -0.4535   -5.8409   -5.5158 C.3       1 <0>        -0.1530
      2 C2         -1.1246   -5.7068   -4.1474 C.3       1 <0>        -0.1465
      3 C3         -0.3737   -4.6691   -3.3105 C.3       1 <0>         0.0961
      4 N1         -1.0950   -4.4386   -2.0564 N.am      1 <0>        -0.6036
      5 C4         -0.9691   -5.3939   -0.9528 C.3       1 <0>         0.1121
      6 C5          0.2020   -4.9862   -0.0565 C.3       1 <0>        -0.1388
      7 C6          0.3334   -5.9838    1.0961 C.3       1 <0>        -0.1507
      8 C7         -1.8743   -3.3478   -1.9178 C.2       1 <0>         0.5576
      9 O1         -2.5429   -3.2022   -0.9132 O.2       1 <0>        -0.5231
     10 C8         -1.9159   -2.3282   -2.9879 C.ar      1 <0>        -0.1200
     11 C9         -2.1607   -2.7098   -4.3093 C.ar      1 <0>        -0.0684
     12 C10        -2.1999   -1.7591   -5.3096 C.ar      1 <0>        -0.0910
     13 C11        -1.9976   -0.4258   -5.0118 C.ar      1 <0>        -0.0751
     14 C12        -1.7514   -0.0308   -3.6950 C.ar      1 <0>        -0.1394
     15 C13        -1.7167   -0.9844   -2.6797 C.ar      1 <0>        -0.0155
     16 C14        -1.5341    1.3970   -3.3781 C.2       1 <0>         0.5653
     17 O2         -1.2222    1.7288   -2.2511 O.2       1 <0>        -0.4913
     18 N2         -1.6819    2.3306   -4.3389 N.am      1 <0>        -0.7363
     19 C15        -1.3701    3.7330   -4.0517 C.3       1 <0>         0.1067
     20 H1         -1.4923    3.9213   -2.9851 H         1 <0>         0.1494
     21 C16         0.0748    4.0280   -4.4594 C.3       1 <0>        -0.0878
     22 C17         1.0147    3.2391   -3.5845 C.ar      1 <0>        -0.0252
     23 C18         1.3769    3.7279   -2.3436 C.ar      1 <0>        -0.1473
     24 C19         2.2408    3.0041   -1.5390 C.ar      1 <0>         0.1431
     25 C20         2.7413    1.7905   -1.9779 C.ar      1 <0>        -0.1903
     26 C21         2.3774    1.3017   -3.2208 C.ar      1 <0>         0.1370
     27 C22         1.5092    2.0248   -4.0215 C.ar      1 <0>        -0.1610
     28 F1          2.8650    0.1173   -3.6504 F         1 <0>        -0.1292
     29 F2          2.5955    3.4825   -0.3264 F         1 <0>        -0.1272
     30 C23        -2.3178    4.6381   -4.8413 C.3       1 <0>         0.0968
     31 H2         -2.1570    4.4892   -5.9090 H         1 <0>         0.1414
     32 C24        -3.7658    4.2904   -4.4902 C.3       1 <0>        -0.0263
     33 H3         -3.9182    3.2174   -4.6071 H         1 <0>         0.1749
     34 C25        -4.0402    4.6800   -3.0655 C.2       1 <0>         0.4967
     35 O3         -3.1941    4.4527   -2.2269 O.2       1 <0>        -0.4624
     36 N3         -5.1799    5.2681   -2.6844 N.am      1 <0>        -0.5990
     37 C26        -6.2444    5.6060   -3.6260 C.3       1 <0>         0.0793
     38 C27        -6.0551    4.8252   -4.9279 C.3       1 <0>        -0.0208
     39 N4         -4.6720    5.0119   -5.3924 N.4       1 <0>        -0.5009
     40 C28        -5.3679    5.5853   -1.2666 C.3       1 <0>         0.1386
     41 C29        -4.8352    6.9914   -0.9836 C.3       1 <0>        -0.1847
     42 C30        -3.6502    7.1181   -0.0241 C.3       1 <0>        -0.1678
     43 C31        -5.0463    7.5571    0.4222 C.3       1 <0>        -0.1676
     44 O4         -2.0613    6.0036   -4.5068 O.3       1 <0>        -0.5367
     45 C32        -2.4640   -2.1781   -6.7328 C.3       1 <0>        -0.1185
     46 H4         -0.9339   -6.6408   -6.0792 H         1 <0>         0.0628
     47 H5         -0.5511   -4.9025   -6.0618 H         1 <0>         0.0554
     48 H6          0.6025   -6.0748   -5.3812 H         1 <0>         0.0609
     49 H7         -2.1585   -5.3879   -4.2794 H         1 <0>         0.0659
     50 H8         -1.1038   -6.6695   -3.6366 H         1 <0>         0.0727
     51 H9          0.6289   -5.0360   -3.0910 H         1 <0>         0.0828
     52 H10        -0.3048   -3.7345   -3.8671 H         1 <0>         0.0871
     53 H11        -1.8894   -5.3977   -0.3688 H         1 <0>         0.0881
     54 H12        -0.7893   -6.3912   -1.3542 H         1 <0>         0.0817
     55 H13         1.1223   -4.9823   -0.6404 H         1 <0>         0.0633
     56 H14         0.0222   -3.9889    0.3450 H         1 <0>         0.0647
     57 H15         1.1677   -5.6933    1.7347 H         1 <0>         0.0597
     58 H16        -0.5869   -5.9877    1.6801 H         1 <0>         0.0580
     59 H17         0.5132   -6.9811    0.6947 H         1 <0>         0.0570
     60 H18        -2.3194   -3.7509   -4.5489 H         1 <0>         0.1433
     61 H19        -2.0295    0.3129   -5.7990 H         1 <0>         0.1262
     62 H20        -1.5315   -0.6837   -1.6591 H         1 <0>         0.1425
     63 H21        -1.9946    2.0740   -5.2205 H         1 <0>         0.3952
     64 H22         0.2235    3.7440   -5.5012 H         1 <0>         0.0854
     65 H23         0.2755    5.0928   -4.3408 H         1 <0>         0.1021
     66 H24         0.9864    4.6748   -2.0013 H         1 <0>         0.1392
     67 H25         3.4154    1.2254   -1.3513 H         1 <0>         0.1489
     68 H26         1.2217    1.6416   -4.9894 H         1 <0>         0.1353
     69 H27        -7.2095    5.3511   -3.1880 H         1 <0>         0.1295
     70 H28        -6.2151    6.6749   -3.8373 H         1 <0>         0.1025
     71 H29        -6.2425    3.7663   -4.7495 H         1 <0>         0.1428
     72 H30        -6.7479    5.1988   -5.6820 H         1 <0>         0.1620
     73 H31        -4.4418    5.9942   -5.3879 H         1 <0>         0.4383
     74 H32        -6.4294    5.5429   -1.0224 H         1 <0>         0.0956
     75 H33        -4.8258    4.8620   -0.6574 H         1 <0>         0.1011
     76 H34        -4.8833    7.6894   -1.8194 H         1 <0>         0.1046
     77 H35        -3.2501    6.1997    0.4056 H         1 <0>         0.1012
     78 H36        -2.9183    7.8995   -0.2286 H         1 <0>         0.0969
     79 H37        -5.2328    8.6273    0.5113 H         1 <0>         0.1014
     80 H38        -5.5646    6.9276    1.1455 H         1 <0>         0.0999
     81 H39        -2.1850    6.2089   -3.5700 H         1 <0>         0.3957
     82 H40        -3.5370   -2.1604   -6.9236 H         1 <0>         0.0758
     83 H41        -1.9626   -1.4898   -7.4132 H         1 <0>         0.0714
     84 H42        -2.0835   -3.1872   -6.8911 H         1 <0>         0.0746
     85 H43        -4.5796    4.6457   -6.3280 H         1 <0>         0.4390
@<TRIPOS>BOND
     1    1    2 1
     2    1   46 1
     3    1   47 1
     4    1   48 1
     5    2    3 1
     6    2   49 1
     7    2   50 1
     8    3    4 1
     9    3   51 1
    10    3   52 1
    11    4    5 1
    12    4    8 am
    13    5    6 1
    14    5   53 1
    15    5   54 1
    16    6    7 1
    17    6   55 1
    18    6   56 1
    19    7   57 1
    20    7   58 1
    21    7   59 1
    22    8    9 2
    23    8   10 1
    24   10   15 ar
    25   10   11 ar
    26   11   12 ar
    27   11   60 1
    28   12   13 ar
    29   12   45 1
    30   13   14 ar
    31   13   61 1
    32   14   15 ar
    33   14   16 1
    34   15   62 1
    35   16   17 2
    36   16   18 am
    37   18   19 1
    38   18   63 1
    39   19   20 1
    40   19   21 1
    41   19   30 1
    42   21   22 1
    43   21   64 1
    44   21   65 1
    45   22   27 ar
    46   22   23 ar
    47   23   24 ar
    48   23   66 1
    49   24   25 ar
    50   24   29 1
    51   25   26 ar
    52   25   67 1
    53   26   27 ar
    54   26   28 1
    55   27   68 1
    56   30   31 1
    57   30   32 1
    58   30   44 1
    59   32   33 1
    60   32   39 1
    61   32   34 1
    62   34   35 2
    63   34   36 am
    64   36   37 1
    65   36   40 1
    66   37   38 1
    67   37   69 1
    68   37   70 1
    69   38   39 1
    70   38   71 1
    71   38   72 1
    72   39   73 1
    73   39   85 1
    74   40   41 1
    75   40   74 1
    76   40   75 1
    77   41   43 1
    78   41   42 1
    79   41   76 1
    80   42   43 1
    81   42   77 1
    82   42   78 1
    83   43   79 1
    84   43   80 1
    85   44   81 1
    86   45   82 1
    87   45   83 1
    88   45   84 1
@<TRIPOS>MOLECULE
CHEMBL583608
   53    58     0     0     0
SMALL
USER_CHARGES

@<TRIPOS>ATOM
      1 C1          1.5241    1.5567    0.3422 C.ar      1 <0>        -0.1050
      2 C2          0.2171    1.9649    0.1677 C.ar      1 <0>        -0.0774
      3 C3         -0.7790    1.0204   -0.0711 C.ar      1 <0>        -0.0329
      4 C4         -0.4492   -0.3324   -0.1323 C.ar      1 <0>        -0.1005
      5 C5          0.8607   -0.7292    0.0437 C.ar      1 <0>        -0.0937
      6 C6          1.8457    0.2130    0.2805 C.ar      1 <0>        -0.0637
      7 C7          1.2188   -2.1915   -0.0217 C.3       1 <0>         0.2225
      8 C8          0.3767   -2.9855    0.9410 C.cat     1 <0>         0.5003
      9 N1         -0.8975   -3.1381    0.9988 N.pl3     1 <0>        -0.5613
     10 C9         -1.4735   -3.9609    2.0699 C.3       1 <0>         0.0552
     11 C10        -0.5041   -5.0760    2.4649 C.3       1 <0>        -0.1634
     12 C11         0.8388   -4.4669    2.8953 C.3       1 <0>         0.0850
     13 N2          1.2772   -3.5722    1.8126 N.pl3     1 <0>        -0.5396
     14 C12         2.5489   -3.1929    1.4889 C.2       1 <0>         0.6048
     15 N3          2.5969   -2.4086    0.4538 N.2       1 <0>        -0.5349
     16 N4          3.6623   -3.5984    2.1860 N.pl3     1 <0>        -0.8060
     17 C13         1.0555   -2.7125   -1.4263 C.ar      1 <0>        -0.0917
     18 C14        -0.2093   -2.8580   -1.9653 C.ar      1 <0>        -0.1073
     19 C15        -0.3642   -3.3350   -3.2535 C.ar      1 <0>        -0.0882
     20 C16         0.7489   -3.6690   -4.0078 C.ar      1 <0>         0.0603
     21 C17         2.0230   -3.5224   -3.4648 C.ar      1 <0>         0.0444
     22 C18         2.1709   -3.0383   -2.1751 C.ar      1 <0>        -0.0556
     23 O1          2.9415   -3.9141   -4.3955 O.3       1 <0>        -0.2990
     24 C19         2.2043   -4.6852   -5.3625 C.3       1 <0>         0.2112
     25 O2          0.8692   -4.1524   -5.2786 O.3       1 <0>        -0.2988
     26 C20        -2.1857    1.4530   -0.2590 C.ar      1 <0>        -0.1352
     27 C21        -2.7878    2.3247    0.6510 C.ar      1 <0>        -0.0326
     28 C22        -4.1030    2.6987    0.4314 C.ar      1 <0>        -0.1758
     29 C23        -4.7733    2.2027   -0.6712 C.ar      1 <0>         0.1469
     30 N5         -4.1803    1.3800   -1.5151 N.ar      1 <0>        -0.5065
     31 C24        -2.9275    1.0000   -1.3517 C.ar      1 <0>         0.3170
     32 F1         -2.3597    0.1612   -2.2456 F         1 <0>        -0.1068
     33 H1          2.2977    2.2883    0.5229 H         1 <0>         0.1421
     34 H2         -0.0330    3.0144    0.2164 H         1 <0>         0.1378
     35 H3         -1.2174   -1.0687   -0.3168 H         1 <0>         0.1073
     36 H4          2.8696   -0.1020    0.4174 H         1 <0>         0.1475
     37 H5         -1.6744   -3.3334    2.9382 H         1 <0>         0.1235
     38 H6         -2.4081   -4.4016    1.7230 H         1 <0>         0.1396
     39 H7         -0.9255   -5.6465    3.2926 H         1 <0>         0.1412
     40 H8         -0.3458   -5.7375    1.6131 H         1 <0>         0.1005
     41 H9          0.7105   -3.8992    3.8170 H         1 <0>         0.1159
     42 H10         1.5743   -5.2574    3.0444 H         1 <0>         0.1266
     43 H11         3.5675   -4.1851    2.9525 H         1 <0>         0.4196
     44 H12         4.5426   -3.2977    1.9112 H         1 <0>         0.4410
     45 H13        -1.0782   -2.5989   -1.3786 H         1 <0>         0.1177
     46 H14        -1.3534   -3.4477   -3.6720 H         1 <0>         0.1496
     47 H15         3.1579   -2.9194   -1.7531 H         1 <0>         0.1564
     48 H16         2.6133   -4.5380   -6.3620 H         1 <0>         0.1426
     49 H17         2.2123   -5.7421   -5.0961 H         1 <0>         0.0931
     50 H18        -2.2416    2.6974    1.5048 H         1 <0>         0.1499
     51 H19        -4.6002    3.3710    1.1150 H         1 <0>         0.1534
     52 H20        -5.7990    2.4931   -0.8444 H         1 <0>         0.1753
     53 H21        -1.4726   -2.7143    0.3426 H         1 <0>         0.4479
@<TRIPOS>BOND
     1    1    6 ar
     2    1    2 ar
     3    1   33 1
     4    2    3 ar
     5    2   34 1
     6    3    4 ar
     7    3   26 1
     8    4    5 ar
     9    4   35 1
    10    5    6 ar
    11    5    7 1
    12    6   36 1
    13    7   15 1
    14    7    8 1
    15    7   17 1
    16    8   13 1
    17    8    9 2
    18    9   10 1
    19    9   53 1
    20   10   11 1
    21   10   37 1
    22   10   38 1
    23   11   12 1
    24   11   39 1
    25   11   40 1
    26   12   13 1
    27   12   41 1
    28   12   42 1
    29   13   14 1
    30   14   15 2
    31   14   16 1
    32   16   43 1
    33   16   44 1
    34   17   22 ar
    35   17   18 ar
    36   18   19 ar
    37   18   45 1
    38   19   20 ar
    39   19   46 1
    40   20   25 1
    41   20   21 ar
    42   21   22 ar
    43   21   23 1
    44   22   47 1
    45   23   24 1
    46   24   25 1
    47   24   48 1
    48   24   49 1
    49   26   31 ar
    50   26   27 ar
    51   27   28 ar
    52   27   50 1
    53   28   29 ar
    54   28   51 1
    55   29   30 ar
    56   29   52 1
    57   30   31 ar
    58   31   32 1
@<TRIPOS>MOLECULE
CHEMBL583608__1
   53    58     0     0     0
SMALL
USER_CHARGES

@<TRIPOS>ATOM
      1 C1         -1.5250    0.3952    0.2123 C.ar      1 <0>        -0.1011
      2 C2         -0.8333    1.5640   -0.0344 C.ar      1 <0>        -0.0792
      3 C3          0.5375    1.5205   -0.2800 C.ar      1 <0>        -0.0337
      4 C4          1.2026    0.2958   -0.2749 C.ar      1 <0>        -0.0507
      5 C5          0.5011   -0.8664   -0.0270 C.ar      1 <0>        -0.0927
      6 C6         -0.8599   -0.8174    0.2161 C.ar      1 <0>        -0.1174
      7 C7          1.2188   -2.1915   -0.0217 C.3       1 <0>         0.2218
      8 C8          0.5129   -3.1786   -0.9126 C.cat     1 <0>         0.5009
      9 N1         -0.6741   -3.6640   -0.8371 N.pl3     1 <0>        -0.5605
     10 C9         -1.1135   -4.6434   -1.8389 C.3       1 <0>         0.0558
     11 C10        -0.4302   -4.3761   -3.1809 C.3       1 <0>        -0.1631
     12 C11         1.0951   -4.4126   -3.0020 C.3       1 <0>         0.0845
     13 N2          1.4262   -3.4905   -1.9043 N.pl3     1 <0>        -0.5393
     14 C12         2.5961   -2.8208   -1.6834 C.2       1 <0>         0.6042
     15 N3          2.5542   -2.0592   -0.6311 N.2       1 <0>        -0.5355
     16 N4          3.7028   -2.9405   -2.4899 N.pl3     1 <0>        -0.8061
     17 C13         1.3288   -2.7264    1.3829 C.ar      1 <0>        -0.0913
     18 C14         0.1874   -3.0844    2.0760 C.ar      1 <0>        -0.1090
     19 C15         0.2832   -3.5760    3.3644 C.ar      1 <0>        -0.0912
     20 C16         1.5246   -3.7106    3.9647 C.ar      1 <0>         0.0598
     21 C17         2.6744   -3.3498    3.2665 C.ar      1 <0>         0.0449
     22 C18         2.5712   -2.8633    1.9734 C.ar      1 <0>        -0.0564
     23 O1          3.7582   -3.5736    4.0656 O.3       1 <0>        -0.2998
     24 C19         3.2337   -3.6888    5.4016 C.3       1 <0>         0.2112
     25 O2          1.8881   -4.1605    5.2011 O.3       1 <0>        -0.3002
     26 C20         1.2863    2.7733   -0.5463 C.ar      1 <0>        -0.1362
     27 C21         0.8240    3.6887   -1.4944 C.ar      1 <0>        -0.0325
     28 C22         1.5588    4.8432   -1.7065 C.ar      1 <0>        -0.1787
     29 C23         2.7163    5.0524   -0.9803 C.ar      1 <0>         0.1479
     30 N5          3.1307    4.1706   -0.0907 N.ar      1 <0>        -0.5080
     31 C24         2.4617    3.0594    0.1509 C.ar      1 <0>         0.3250
     32 F1          2.9209    2.1885    1.0760 F         1 <0>        -0.1041
     33 H1         -2.5868    0.4282    0.4072 H         1 <0>         0.1411
     34 H2         -1.3537    2.5103   -0.0375 H         1 <0>         0.1381
     35 H3          2.2651    0.2563   -0.4649 H         1 <0>         0.1459
     36 H4         -1.4050   -1.7294    0.4099 H         1 <0>         0.1085
     37 H5         -0.8587   -5.6469   -1.4981 H         1 <0>         0.1236
     38 H6         -2.1939   -4.5715   -1.9638 H         1 <0>         0.1398
     39 H7         -0.7294   -5.1398   -3.8987 H         1 <0>         0.1408
     40 H8         -0.7285   -3.3951   -3.5507 H         1 <0>         0.0999
     41 H9          1.4150   -5.4230   -2.7473 H         1 <0>         0.1160
     42 H10         1.5845   -4.0876   -3.9202 H         1 <0>         0.1262
     43 H11         3.6782   -3.5249   -3.2637 H         1 <0>         0.4197
     44 H12         4.5084   -2.4404   -2.2853 H         1 <0>         0.4410
     45 H13        -0.7812   -2.9795    1.6099 H         1 <0>         0.1237
     46 H14        -0.6101   -3.8549    3.9035 H         1 <0>         0.1495
     47 H15         3.4614   -2.5870    1.4280 H         1 <0>         0.1556
     48 H16         3.8108   -4.4113    5.9787 H         1 <0>         0.1424
     49 H17         3.2294   -2.7176    5.8964 H         1 <0>         0.0957
     50 H18        -0.0837    3.5007   -2.0486 H         1 <0>         0.1481
     51 H19         1.2309    5.5727   -2.4322 H         1 <0>         0.1523
     52 H20         3.2909    5.9521   -1.1441 H         1 <0>         0.1746
     53 H21        -1.2731   -3.3870   -0.1262 H         1 <0>         0.4484
@<TRIPOS>BOND
     1    1    6 ar
     2    1    2 ar
     3    1   33 1
     4    2    3 ar
     5    2   34 1
     6    3    4 ar
     7    3   26 1
     8    4    5 ar
     9    4   35 1
    10    5    6 ar
    11    5    7 1
    12    6   36 1
    13    7   15 1
    14    7    8 1
    15    7   17 1
    16    8   13 1
    17    8    9 2
    18    9   10 1
    19    9   53 1
    20   10   11 1
    21   10   37 1
    22   10   38 1
    23   11   12 1
    24   11   39 1
    25   11   40 1
    26   12   13 1
    27   12   41 1
    28   12   42 1
    29   13   14 1
    30   14   15 2
    31   14   16 1
    32   16   43 1
    33   16   44 1
    34   17   22 ar
    35   17   18 ar
    36   18   19 ar
    37   18   45 1
    38   19   20 ar
    39   19   46 1
    40   20   25 1
    41   20   21 ar
    42   21   22 ar
    43   21   23 1
    44   22   47 1
    45   23   24 1
    46   24   25 1
    47   24   48 1
    48   24   49 1
    49   26   31 ar
    50   26   27 ar
    51   27   28 ar
    52   27   50 1
    53   28   29 ar
    54   28   51 1
    55   29   30 ar
    56   29   52 1
    57   30   31 ar
    58   31   32 1
@<TRIPOS>MOLECULE
CHEMBL571833
   70    72     0     0     0
SMALL
USER_CHARGES

@<TRIPOS>ATOM
      1 C1         -1.2610   -6.8832   -2.9734 C.3       1 <0>        -0.1824
      2 C2         -1.3553   -6.3297   -1.5749 C.2       1 <0>         0.5119
      3 O1         -0.4686   -5.6255   -1.1403 O.2       1 <0>        -0.5321
      4 N1         -2.4249   -6.6173   -0.8070 N.am      1 <0>        -0.7327
      5 C3         -2.5166   -6.0793    0.5525 C.3       1 <0>         0.1320
      6 H1         -3.4440   -6.4170    1.0151 H         1 <0>         0.1059
      7 C4         -1.3261   -6.5724    1.3775 C.3       1 <0>        -0.0990
      8 C5         -1.4091   -8.0689    1.5345 C.ar      1 <0>        -0.0286
      9 C6         -2.0892   -8.6140    2.6071 C.ar      1 <0>        -0.1647
     10 C7         -2.1657   -9.9889    2.7526 C.ar      1 <0>         0.1399
     11 C8         -1.5611  -10.8174    1.8231 C.ar      1 <0>        -0.1922
     12 C9         -0.8806  -10.2704    0.7490 C.ar      1 <0>         0.1390
     13 C10        -0.8098   -8.8952    0.6027 C.ar      1 <0>        -0.1582
     14 F1         -0.2901  -11.0779   -0.1590 F         1 <0>        -0.1258
     15 F2         -2.8298  -10.5215    3.8017 F         1 <0>        -0.1254
     16 C11        -2.5011   -4.5504    0.4981 C.3       1 <0>         0.0663
     17 H2         -1.5737   -4.2127    0.0354 H         1 <0>         0.1456
     18 C12        -3.6916   -4.0573   -0.3269 C.3       1 <0>        -0.0547
     19 N2         -3.6107   -2.5986   -0.4799 N.4       1 <0>        -0.4979
     20 C13        -4.8136   -2.1109   -1.1678 C.3       1 <0>         0.1070
     21 C14        -4.9936   -2.8535   -2.5079 C.3       1 <0>        -0.1326
     22 C15        -5.9782   -4.0023   -2.1763 C.3       1 <0>        -0.1390
     23 C16        -6.9597   -3.3348   -1.1813 C.3       1 <0>        -0.1269
     24 C17        -6.0636   -2.4169   -0.3243 C.3       1 <0>        -0.1347
     25 C18        -4.7041   -0.6274   -1.4092 C.ar      1 <0>        -0.1180
     26 C19        -5.7357    0.0494   -2.0331 C.ar      1 <0>        -0.0977
     27 C20        -5.6353    1.4100   -2.2544 C.ar      1 <0>        -0.0962
     28 C21        -4.5035    2.0943   -1.8515 C.ar      1 <0>        -0.1005
     29 C22        -3.4726    1.4178   -1.2270 C.ar      1 <0>        -0.0420
     30 C23        -3.5749    0.0576   -1.0017 C.ar      1 <0>        -0.1342
     31 C24        -2.2388    2.1636   -0.7883 C.3       1 <0>        -0.0354
     32 C25        -2.3816    3.6433   -1.1500 C.3       1 <0>        -0.1513
     33 C26        -2.0691    2.0227    0.7257 C.3       1 <0>        -0.1407
     34 C27        -1.0129    1.5818   -1.4952 C.3       1 <0>        -0.1408
     35 O2         -2.5905   -4.0256    1.8242 O.3       1 <0>        -0.5419
     36 H3         -0.7550   -7.8483   -2.9489 H         1 <0>         0.1028
     37 H4         -2.2633   -7.0088   -3.3828 H         1 <0>         0.0837
     38 H5         -0.6964   -6.1928   -3.6001 H         1 <0>         0.0997
     39 H6         -3.1341   -7.1806   -1.1546 H         1 <0>         0.4119
     40 H7         -0.3983   -6.3114    0.8684 H         1 <0>         0.1082
     41 H8         -1.3457   -6.1022    2.3607 H         1 <0>         0.1016
     42 H9         -2.5608   -7.9673    3.3322 H         1 <0>         0.1431
     43 H10        -1.6200  -11.8899    1.9360 H         1 <0>         0.1524
     44 H11        -0.2827   -8.4682   -0.2377 H         1 <0>         0.1359
     45 H12        -3.6719   -4.5275   -1.3101 H         1 <0>         0.1442
     46 H13        -4.6194   -4.3183    0.1822 H         1 <0>         0.1402
     47 H14        -3.5459   -2.1680    0.4303 H         1 <0>         0.4314
     48 H15        -5.4219   -2.1886   -3.2580 H         1 <0>         0.1145
     49 H16        -4.0407   -3.2553   -2.8524 H         1 <0>         0.0869
     50 H17        -6.5024   -4.3327   -3.0731 H         1 <0>         0.0942
     51 H18        -5.4559   -4.8345   -1.7042 H         1 <0>         0.0751
     52 H19        -7.7055   -2.7476   -1.7171 H         1 <0>         0.0864
     53 H20        -7.4416   -4.0877   -0.5577 H         1 <0>         0.0877
     54 H21        -5.7777   -2.9272    0.5954 H         1 <0>         0.0854
     55 H22        -6.5916   -1.4925   -0.0903 H         1 <0>         0.1071
     56 H23        -6.6198   -0.4851   -2.3478 H         1 <0>         0.1323
     57 H24        -6.4408    1.9386   -2.7424 H         1 <0>         0.1367
     58 H25        -4.4247    3.1573   -2.0251 H         1 <0>         0.1395
     59 H26        -2.7710   -0.4704   -0.5103 H         1 <0>         0.1114
     60 H27        -3.2550    4.0578   -0.6464 H         1 <0>         0.0623
     61 H28        -1.4892    4.1827   -0.8327 H         1 <0>         0.0670
     62 H29        -2.5025    3.7437   -2.2286 H         1 <0>         0.0623
     63 H30        -1.9673    0.9685    0.9834 H         1 <0>         0.0514
     64 H31        -1.1766    2.5622    1.0431 H         1 <0>         0.0679
     65 H32        -2.9424    2.4372    1.2293 H         1 <0>         0.0603
     66 H33        -1.1338    1.6822   -2.5738 H         1 <0>         0.0603
     67 H34        -0.1205    2.1213   -1.1778 H         1 <0>         0.0681
     68 H35        -0.9111    0.5276   -1.2375 H         1 <0>         0.0509
     69 H36        -3.3927   -4.2861    2.2970 H         1 <0>         0.3872
     70 H37        -2.7937   -2.3621   -1.0228 H         1 <0>         0.4278
@<TRIPOS>BOND
     1    1    2 1
     2    1   36 1
     3    1   37 1
     4    1   38 1
     5    2    3 2
     6    2    4 am
     7    4    5 1
     8    4   39 1
     9    5    6 1
    10    5    7 1
    11    5   16 1
    12    7    8 1
    13    7   40 1
    14    7   41 1
    15    8   13 ar
    16    8    9 ar
    17    9   10 ar
    18    9   42 1
    19   10   11 ar
    20   10   15 1
    21   11   12 ar
    22   11   43 1
    23   12   13 ar
    24   12   14 1
    25   13   44 1
    26   16   17 1
    27   16   18 1
    28   16   35 1
    29   18   19 1
    30   18   45 1
    31   18   46 1
    32   19   20 1
    33   19   47 1
    34   19   70 1
    35   20   24 1
    36   20   21 1
    37   20   25 1
    38   21   22 1
    39   21   48 1
    40   21   49 1
    41   22   23 1
    42   22   50 1
    43   22   51 1
    44   23   24 1
    45   23   52 1
    46   23   53 1
    47   24   54 1
    48   24   55 1
    49   25   30 ar
    50   25   26 ar
    51   26   27 ar
    52   26   56 1
    53   27   28 ar
    54   27   57 1
    55   28   29 ar
    56   28   58 1
    57   29   30 ar
    58   29   31 1
    59   30   59 1
    60   31   32 1
    61   31   33 1
    62   31   34 1
    63   32   60 1
    64   32   61 1
    65   32   62 1
    66   33   63 1
    67   33   64 1
    68   33   65 1
    69   34   66 1
    70   34   67 1
    71   34   68 1
    72   35   69 1
@<TRIPOS>MOLECULE
CHEMBL399362
   72    76     0     0     0
SMALL
USER_CHARGES

@<TRIPOS>ATOM
      1 C1         -0.0302    1.5563    0.4638 C.3       1 <0>        -0.2046
      2 C2         -0.0163    0.0291    0.5548 C.3       1 <0>         0.0465
      3 C3          0.4844   -0.5544   -0.7674 C.3       1 <0>        -0.0843
      4 C4          0.6565    0.5641   -1.7648 C.ar      1 <0>        -0.1178
      5 C5          0.0144    0.5156   -2.9875 C.ar      1 <0>        -0.1101
      6 C6          0.1718    1.5484   -3.8926 C.ar      1 <0>        -0.1080
      7 C7          0.9736    2.6288   -3.5765 C.ar      1 <0>        -0.0971
      8 C8          1.6226    2.6738   -2.3570 C.ar      1 <0>        -0.0679
      9 C9          1.4602    1.6450   -1.4481 C.ar      1 <0>        -0.1195
     10 C10         2.5098    3.8478   -2.0169 C.3       1 <0>        -0.0936
     11 C11         2.0459    4.4680   -0.6988 C.3       1 <0>        -0.1245
     12 C12         3.2592    4.9720    0.0897 C.3       1 <0>         0.2064
     13 H1          3.6865    5.8442   -0.4051 H         1 <0>         0.0860
     14 N1          2.7832    5.3437    1.4457 N.am      1 <0>        -0.8085
     15 C13         3.6206    5.0780    2.4714 C.2       1 <0>         0.5940
     16 O1          4.6425    5.7297    2.5633 O.2       1 <0>        -0.4581
     17 C14         3.3631    4.0464    3.4800 C.ar      1 <0>        -0.1362
     18 C15         2.5550    2.9544    3.1379 C.ar      1 <0>        -0.0483
     19 C16         2.3200    1.9559    4.0613 C.ar      1 <0>        -0.1194
     20 C17         2.8665    2.0250    5.3247 C.ar      1 <0>        -0.0499
     21 C18         3.6675    3.1107    5.6789 C.ar      1 <0>        -0.0584
     22 C19         3.9211    4.1183    4.7512 C.ar      1 <0>        -0.0283
     23 C20         4.2475    3.1922    7.0403 C.ar      1 <0>         0.0162
     24 C21         3.4384    3.0101    8.1576 C.ar      1 <0>        -0.1149
     25 C22         3.9809    3.0865    9.4252 C.ar      1 <0>        -0.0561
     26 C23         5.3299    3.3439    9.5972 C.ar      1 <0>        -0.1442
     27 C24         6.1519    3.5280    8.5012 C.ar      1 <0>         0.1533
     28 C25         5.6205    3.4484    7.2104 C.ar      1 <0>        -0.0461
     29 C26         6.4664    3.6320    6.0696 C.1       1 <0>         0.2324
     30 N2          7.1375    3.7777    5.1647 N.1       1 <0>        -0.3738
     31 F1          7.4676    3.7794    8.6768 F         1 <0>        -0.1200
     32 C27         1.4645    0.7766    3.6583 C.3       1 <0>         0.1267
     33 O2          1.6920    0.4985    2.2733 O.3       1 <0>        -0.3637
     34 C28         0.8906   -0.3965    1.6758 C.2       1 <0>         0.4815
     35 O3          0.8950   -1.5480    2.0418 O.2       1 <0>        -0.4225
     36 C29         4.2944    3.8814    0.1894 C.ar      1 <0>        -0.1257
     37 C30         3.9245    2.6131    0.5967 C.ar      1 <0>        -0.0841
     38 C31         4.8729    1.6121    0.6881 C.ar      1 <0>        -0.1538
     39 C32         6.1940    1.8798    0.3716 C.ar      1 <0>         0.1149
     40 C33         6.5633    3.1504   -0.0361 C.ar      1 <0>        -0.1462
     41 C34         5.6122    4.1485   -0.1319 C.ar      1 <0>        -0.0585
     42 F2          7.1220    0.9021    0.4611 F         1 <0>        -0.1338
     43 N3         -1.3776   -0.4569    0.8168 N.4       1 <0>        -0.6222
     44 H2          0.9826    1.9373    0.5951 H         1 <0>         0.1243
     45 H3         -0.4085    1.8587   -0.5127 H         1 <0>         0.1210
     46 H4         -0.6746    1.9609    1.2443 H         1 <0>         0.0883
     47 H5          1.4415   -1.0509   -0.6076 H         1 <0>         0.1187
     48 H6         -0.2418   -1.2731   -1.1471 H         1 <0>         0.1113
     49 H7         -0.6102   -0.3297   -3.2362 H         1 <0>         0.1265
     50 H8         -0.3318    1.5109   -4.8473 H         1 <0>         0.1315
     51 H9          1.0933    3.4375   -4.2823 H         1 <0>         0.1312
     52 H10         1.9603    1.6848   -0.4917 H         1 <0>         0.1319
     53 H11         3.5404    3.5076   -1.9159 H         1 <0>         0.0912
     54 H12         2.4482    4.5922   -2.8107 H         1 <0>         0.0842
     55 H13         1.3762    5.3026   -0.9065 H         1 <0>         0.0829
     56 H14         1.5175    3.7175   -0.1109 H         1 <0>         0.0673
     57 H15         1.9167    5.7559    1.5875 H         1 <0>         0.4140
     58 H16         2.1161    2.8942    2.1530 H         1 <0>         0.1373
     59 H17         2.6743    1.2391    6.0401 H         1 <0>         0.1423
     60 H18         4.5505    4.9541    5.0190 H         1 <0>         0.1374
     61 H19         2.3845    2.8091    8.0332 H         1 <0>         0.1440
     62 H20         3.3479    2.9446   10.2886 H         1 <0>         0.1493
     63 H21         5.7427    3.4017   10.5936 H         1 <0>         0.1534
     64 H22         1.7364   -0.0937    4.2556 H         1 <0>         0.0954
     65 H23         0.4129    1.0170    3.8152 H         1 <0>         0.0867
     66 H24         2.8941    2.4047    0.8439 H         1 <0>         0.1288
     67 H25         4.5838    0.6215    1.0066 H         1 <0>         0.1329
     68 H26         7.5935    3.3604   -0.2829 H         1 <0>         0.1414
     69 H27         5.8993    5.1385   -0.4542 H         1 <0>         0.1380
     70 H28        -1.9876   -0.1697    0.0661 H         1 <0>         0.4497
     71 H29        -1.3695   -1.4640    0.8770 H         1 <0>         0.4443
     72 H30        -1.7108   -0.0706    1.6874 H         1 <0>         0.4369
@<TRIPOS>BOND
     1    1    2 1
     2    1   44 1
     3    1   45 1
     4    1   46 1
     5    2   34 1
     6    2    3 1
     7    2   43 1
     8    3    4 1
     9    3   47 1
    10    3   48 1
    11    4    9 ar
    12    4    5 ar
    13    5    6 ar
    14    5   49 1
    15    6    7 ar
    16    6   50 1
    17    7    8 ar
    18    7   51 1
    19    8    9 ar
    20    8   10 1
    21    9   52 1
    22   10   11 1
    23   10   53 1
    24   10   54 1
    25   11   12 1
    26   11   55 1
    27   11   56 1
    28   12   13 1
    29   12   14 1
    30   12   36 1
    31   14   15 am
    32   14   57 1
    33   15   16 2
    34   15   17 1
    35   17   22 ar
    36   17   18 ar
    37   18   19 ar
    38   18   58 1
    39   19   20 ar
    40   19   32 1
    41   20   21 ar
    42   20   59 1
    43   21   22 ar
    44   21   23 1
    45   22   60 1
    46   23   28 ar
    47   23   24 ar
    48   24   25 ar
    49   24   61 1
    50   25   26 ar
    51   25   62 1
    52   26   27 ar
    53   26   63 1
    54   27   28 ar
    55   27   31 1
    56   28   29 1
    57   29   30 3
    58   32   33 1
    59   32   64 1
    60   32   65 1
    61   33   34 1
    62   34   35 2
    63   36   41 ar
    64   36   37 ar
    65   37   38 ar
    66   37   66 1
    67   38   39 ar
    68   38   67 1
    69   39   40 ar
    70   39   42 1
    71   40   41 ar
    72   40   68 1
    73   41   69 1
    74   43   70 1
    75   43   71 1
    76   43   72 1
@<TRIPOS>MOLECULE
CHEMBL399362__1
   71    75     0     0     0
SMALL
USER_CHARGES

@<TRIPOS>ATOM
      1 C1         -0.0302    1.5563    0.4638 C.3       1 <0>        -0.2044
      2 C2         -0.0163    0.0291    0.5548 C.3       1 <0>         0.1167
      3 C3          0.4844   -0.5544   -0.7674 C.3       1 <0>        -0.0687
      4 C4          0.6565    0.5641   -1.7648 C.ar      1 <0>        -0.0869
      5 C5          0.0144    0.5156   -2.9875 C.ar      1 <0>        -0.1163
      6 C6          0.1718    1.5484   -3.8926 C.ar      1 <0>        -0.1156
      7 C7          0.9736    2.6288   -3.5765 C.ar      1 <0>        -0.1149
      8 C8          1.6226    2.6738   -2.3570 C.ar      1 <0>        -0.0810
      9 C9          1.4602    1.6450   -1.4482 C.ar      1 <0>        -0.1157
     10 C10         2.5098    3.8478   -2.0169 C.3       1 <0>        -0.0852
     11 C11         2.0459    4.4680   -0.6988 C.3       1 <0>        -0.1296
     12 C12         3.2592    4.9720    0.0897 C.3       1 <0>         0.2087
     13 H1          3.6865    5.8442   -0.4051 H         1 <0>         0.0825
     14 N1          2.7832    5.3437    1.4457 N.am      1 <0>        -0.8087
     15 C13         3.6206    5.0780    2.4714 C.2       1 <0>         0.5993
     16 O1          4.6425    5.7297    2.5633 O.2       1 <0>        -0.4671
     17 C14         3.3631    4.0464    3.4800 C.ar      1 <0>        -0.1427
     18 C15         2.5550    2.9544    3.1379 C.ar      1 <0>        -0.0434
     19 C16         2.3200    1.9559    4.0613 C.ar      1 <0>        -0.1062
     20 C17         2.8665    2.0250    5.3247 C.ar      1 <0>        -0.0519
     21 C18         3.6675    3.1107    5.6789 C.ar      1 <0>        -0.0706
     22 C19         3.9211    4.1183    4.7512 C.ar      1 <0>        -0.0338
     23 C20         4.2475    3.1922    7.0403 C.ar      1 <0>         0.0267
     24 C21         3.4384    3.0101    8.1576 C.ar      1 <0>        -0.1158
     25 C22         3.9809    3.0865    9.4252 C.ar      1 <0>        -0.0571
     26 C23         5.3299    3.3439    9.5972 C.ar      1 <0>        -0.1491
     27 C24         6.1519    3.5280    8.5012 C.ar      1 <0>         0.1505
     28 C25         5.6205    3.4484    7.2104 C.ar      1 <0>        -0.0476
     29 C26         6.4664    3.6320    6.0696 C.1       1 <0>         0.2345
     30 N2          7.1375    3.7777    5.1647 N.1       1 <0>        -0.3760
     31 F1          7.4676    3.7794    8.6768 F         1 <0>        -0.1230
     32 C27         1.4645    0.7766    3.6583 C.3       1 <0>         0.1261
     33 O2          1.6920    0.4985    2.2733 O.3       1 <0>        -0.3875
     34 C28         0.8906   -0.3965    1.6758 C.2       1 <0>         0.4891
     35 O3          0.8950   -1.5480    2.0418 O.2       1 <0>        -0.4392
     36 C29         4.2944    3.8814    0.1894 C.ar      1 <0>        -0.1247
     37 C30         3.9245    2.6131    0.5967 C.ar      1 <0>        -0.0783
     38 C31         4.8729    1.6121    0.6881 C.ar      1 <0>        -0.1500
     39 C32         6.1940    1.8798    0.3716 C.ar      1 <0>         0.1112
     40 C33         6.5633    3.1504   -0.0361 C.ar      1 <0>        -0.1511
     41 C34         5.6122    4.1485   -0.1319 C.ar      1 <0>        -0.0620
     42 F2          7.1220    0.9021    0.4611 F         1 <0>        -0.1369
     43 N3         -1.3776   -0.4569    0.8168 N.3       1 <0>        -0.8206
     44 H2          0.9826    1.9373    0.5951 H         1 <0>         0.0834
     45 H3         -0.4085    1.8587   -0.5127 H         1 <0>         0.0889
     46 H4         -0.6746    1.9609    1.2443 H         1 <0>         0.0578
     47 H5          1.4415   -1.0509   -0.6076 H         1 <0>         0.0853
     48 H6         -0.2418   -1.2731   -1.1471 H         1 <0>         0.0990
     49 H7         -0.6102   -0.3297   -3.2362 H         1 <0>         0.1228
     50 H8         -0.3318    1.5109   -4.8473 H         1 <0>         0.1228
     51 H9          1.0933    3.4375   -4.2823 H         1 <0>         0.1218
     52 H10         1.9603    1.6848   -0.4917 H         1 <0>         0.1312
     53 H11         3.5404    3.5076   -1.9159 H         1 <0>         0.0854
     54 H12         2.4482    4.5922   -2.8107 H         1 <0>         0.0773
     55 H13         1.3762    5.3026   -0.9065 H         1 <0>         0.0791
     56 H14         1.5175    3.7175   -0.1109 H         1 <0>         0.0749
     57 H15         1.9167    5.7559    1.5875 H         1 <0>         0.4136
     58 H16         2.1161    2.8942    2.1530 H         1 <0>         0.1414
     59 H17         2.6743    1.2391    6.0401 H         1 <0>         0.1402
     60 H18         4.5505    4.9541    5.0190 H         1 <0>         0.1335
     61 H19         2.3845    2.8091    8.0332 H         1 <0>         0.1450
     62 H20         3.3479    2.9446   10.2886 H         1 <0>         0.1474
     63 H21         5.7427    3.4017   10.5936 H         1 <0>         0.1506
     64 H22         1.7364   -0.0937    4.2556 H         1 <0>         0.0840
     65 H23         0.4129    1.0170    3.8152 H         1 <0>         0.0808
     66 H24         2.8941    2.4047    0.8439 H         1 <0>         0.1366
     67 H25         4.5838    0.6215    1.0066 H         1 <0>         0.1357
     68 H26         7.5935    3.3604   -0.2829 H         1 <0>         0.1376
     69 H27         5.8993    5.1385   -0.4542 H         1 <0>         0.1348
     70 H28        -1.7340   -0.0838    1.6839 H         1 <0>         0.3453
     71 H29        -1.9939   -0.2378    0.0485 H         1 <0>         0.3604
@<TRIPOS>BOND
     1    1    2 1
     2    1   44 1
     3    1   45 1
     4    1   46 1
     5    2   34 1
     6    2    3 1
     7    2   43 1
     8    3    4 1
     9    3   47 1
    10    3   48 1
    11    4    9 ar
    12    4    5 ar
    13    5    6 ar
    14    5   49 1
    15    6    7 ar
    16    6   50 1
    17    7    8 ar
    18    7   51 1
    19    8    9 ar
    20    8   10 1
    21    9   52 1
    22   10   11 1
    23   10   53 1
    24   10   54 1
    25   11   12 1
    26   11   55 1
    27   11   56 1
    28   12   13 1
    29   12   14 1
    30   12   36 1
    31   14   15 am
    32   14   57 1
    33   15   16 2
    34   15   17 1
    35   17   22 ar
    36   17   18 ar
    37   18   19 ar
    38   18   58 1
    39   19   20 ar
    40   19   32 1
    41   20   21 ar
    42   20   59 1
    43   21   22 ar
    44   21   23 1
    45   22   60 1
    46   23   28 ar
    47   23   24 ar
    48   24   25 ar
    49   24   61 1
    50   25   26 ar
    51   25   62 1
    52   26   27 ar
    53   26   63 1
    54   27   28 ar
    55   27   31 1
    56   28   29 1
    57   29   30 3
    58   32   33 1
    59   32   64 1
    60   32   65 1
    61   33   34 1
    62   34   35 2
    63   36   41 ar
    64   36   37 ar
    65   37   38 ar
    66   37   66 1
    67   38   39 ar
    68   38   67 1
    69   39   40 ar
    70   39   42 1
    71   40   41 ar
    72   40   68 1
    73   41   69 1
    74   43   70 1
    75   43   71 1
@<TRIPOS>MOLECULE
CHEMBL392361
   61    63     0     0     0
SMALL
USER_CHARGES

@<TRIPOS>ATOM
      1 C1         -0.0187    1.5258    0.0104 C.3       1 <0>        -0.2019
      2 C2          0.0021   -0.0041    0.0020 C.3       1 <0>         0.1046
      3 C3          0.6024   -0.4977   -1.3143 C.3       1 <0>        -0.0673
      4 C4          1.1120    0.6798   -2.1089 C.ar      1 <0>        -0.0843
      5 C5          0.7359    0.8381   -3.4291 C.ar      1 <0>        -0.1193
      6 C6          1.1988    1.9208   -4.1536 C.ar      1 <0>        -0.1160
      7 C7          2.0404    2.8433   -3.5583 C.ar      1 <0>        -0.1185
      8 C8          2.4214    2.6789   -2.2396 C.ar      1 <0>        -0.0820
      9 C9          1.9565    1.5978   -1.5147 C.ar      1 <0>        -0.1107
     10 C10         3.3436    3.6750   -1.5865 C.3       1 <0>        -0.0834
     11 C11         2.7019    4.1715   -0.2891 C.3       1 <0>        -0.1201
     12 C12         3.6452    3.9085    0.8888 C.3       1 <0>        -0.1682
     13 C13         3.4546    5.0075    1.9339 C.3       1 <0>         0.1241
     14 N1          4.0797    4.5882    3.2055 N.pl3     1 <0>        -0.7261
     15 C14         3.4728    3.5131    3.8719 C.ar      1 <0>         0.4387
     16 C15         2.5368    2.7368    3.2013 C.ar      1 <0>        -0.2493
     17 C16         1.9481    1.6677    3.8585 C.ar      1 <0>         0.0109
     18 C17         2.3062    1.4219    5.1741 C.ar      1 <0>        -0.2425
     19 C18         3.2554    2.2345    5.7825 C.ar      1 <0>         0.4174
     20 N2          3.8134    3.2376    5.1207 N.ar      1 <0>        -0.5494
     21 N3          3.6237    1.9920    7.1006 N.pl3     1 <0>        -0.9248
     22 C19         3.0122    0.8851    7.8403 C.3       1 <0>         0.0786
     23 S1          4.7538    2.9542    7.8350 S.o2      1 <0>         2.5999
     24 O1          5.3301    2.1333    8.8416 O.2       1 <0>        -0.9506
     25 O2          5.5474    3.4591    6.7698 O.2       1 <0>        -0.9056
     26 C20         3.7998    4.2973    8.5944 C.3       1 <0>        -0.6673
     27 C21         0.9570    0.7853    3.1439 C.3       1 <0>         0.1302
     28 O3          1.5319    0.3654    1.9019 O.3       1 <0>        -0.3878
     29 C22         0.8345   -0.5007    1.1549 C.2       1 <0>         0.4955
     30 O4          0.8741   -1.6819    1.4061 O.2       1 <0>        -0.4303
     31 N4         -1.3697   -0.5126    0.1345 N.3       1 <0>        -0.8223
     32 H1          0.9708    1.9011    0.2715 H         1 <0>         0.0934
     33 H2         -0.2965    1.8908   -0.9783 H         1 <0>         0.0800
     34 H3         -0.7451    1.8753    0.7441 H         1 <0>         0.0547
     35 H4          1.4272   -1.1787   -1.1045 H         1 <0>         0.0860
     36 H5         -0.1625   -1.0200   -1.8890 H         1 <0>         0.0956
     37 H6          0.0811    0.1165   -3.8948 H         1 <0>         0.1219
     38 H7          0.9029    2.0466   -5.1847 H         1 <0>         0.1219
     39 H8          2.3996    3.6907   -4.1232 H         1 <0>         0.1208
     40 H9          2.2526    1.4711   -0.4838 H         1 <0>         0.1304
     41 H10         4.2971    3.1969   -1.3622 H         1 <0>         0.0799
     42 H11         3.5056    4.5175   -2.2589 H         1 <0>         0.0733
     43 H12         2.5084    5.2414   -0.3666 H         1 <0>         0.0680
     44 H13         1.7617    3.6449   -0.1251 H         1 <0>         0.0696
     45 H14         3.4142    2.9397    1.3319 H         1 <0>         0.0919
     46 H15         4.6771    3.9138    0.5379 H         1 <0>         0.0724
     47 H16         3.9235    5.9272    1.5842 H         1 <0>         0.0868
     48 H17         2.3898    5.1789    2.0914 H         1 <0>         0.0687
     49 H18         4.8663    5.0316    3.5597 H         1 <0>         0.4151
     50 H19         2.2703    2.9636    2.1796 H         1 <0>         0.1559
     51 H20         1.8527    0.6083    5.7208 H         1 <0>         0.1395
     52 H21         3.6062   -0.0179    7.6997 H         1 <0>         0.0767
     53 H22         2.9745    1.1338    8.9008 H         1 <0>         0.0867
     54 H23         2.0008    0.7159    7.4706 H         1 <0>         0.0869
     55 H24         3.0957    3.8806    9.3146 H         1 <0>         0.1251
     56 H25         4.4782    4.9819    9.1036 H         1 <0>         0.1317
     57 H26         3.2524    4.8364    7.8212 H         1 <0>         0.1293
     58 H27         0.7349   -0.0875    3.7578 H         1 <0>         0.0797
     59 H28         0.0408    1.3441    2.9526 H         1 <0>         0.0819
     60 H29        -1.7898   -0.1992    0.9967 H         1 <0>         0.3447
     61 H30        -1.9324   -0.2462   -0.6596 H         1 <0>         0.3591
@<TRIPOS>BOND
     1    1    2 1
     2    1   32 1
     3    1   33 1
     4    1   34 1
     5    2   29 1
     6    2    3 1
     7    2   31 1
     8    3    4 1
     9    3   35 1
    10    3   36 1
    11    4    9 ar
    12    4    5 ar
    13    5    6 ar
    14    5   37 1
    15    6    7 ar
    16    6   38 1
    17    7    8 ar
    18    7   39 1
    19    8    9 ar
    20    8   10 1
    21    9   40 1
    22   10   11 1
    23   10   41 1
    24   10   42 1
    25   11   12 1
    26   11   43 1
    27   11   44 1
    28   12   13 1
    29   12   45 1
    30   12   46 1
    31   13   14 1
    32   13   47 1
    33   13   48 1
    34   14   15 1
    35   14   49 1
    36   15   20 ar
    37   15   16 ar
    38   16   17 ar
    39   16   50 1
    40   17   18 ar
    41   17   27 1
    42   18   19 ar
    43   18   51 1
    44   19   20 ar
    45   19   21 1
    46   21   22 1
    47   21   23 1
    48   22   52 1
    49   22   53 1
    50   22   54 1
    51   23   24 2
    52   23   25 2
    53   23   26 1
    54   26   55 1
    55   26   56 1
    56   26   57 1
    57   27   28 1
    58   27   58 1
    59   27   59 1
    60   28   29 1
    61   29   30 2
    62   31   60 1
    63   31   61 1
@<TRIPOS>MOLECULE
CHEMBL392361__1
   62    64     0     0     0
SMALL
USER_CHARGES

@<TRIPOS>ATOM
      1 C1         -0.0187    1.5258    0.0104 C.3       1 <0>        -0.2004
      2 C2          0.0021   -0.0041    0.0020 C.3       1 <0>         0.0340
      3 C3          0.6024   -0.4977   -1.3143 C.3       1 <0>        -0.0841
      4 C4          1.1120    0.6798   -2.1089 C.ar      1 <0>        -0.1118
      5 C5          0.7359    0.8381   -3.4291 C.ar      1 <0>        -0.1117
      6 C6          1.1988    1.9208   -4.1536 C.ar      1 <0>        -0.1081
      7 C7          2.0404    2.8433   -3.5583 C.ar      1 <0>        -0.1008
      8 C8          2.4214    2.6789   -2.2396 C.ar      1 <0>        -0.0702
      9 C9          1.9565    1.5978   -1.5147 C.ar      1 <0>        -0.1156
     10 C10         3.3436    3.6750   -1.5865 C.3       1 <0>        -0.0914
     11 C11         2.7019    4.1715   -0.2891 C.3       1 <0>        -0.1175
     12 C12         3.6452    3.9085    0.8888 C.3       1 <0>        -0.1693
     13 C13         3.4546    5.0075    1.9339 C.3       1 <0>         0.1219
     14 N1          4.0797    4.5882    3.2055 N.pl3     1 <0>        -0.7232
     15 C14         3.4728    3.5131    3.8719 C.ar      1 <0>         0.4442
     16 C15         2.5368    2.7368    3.2013 C.ar      1 <0>        -0.2543
     17 C16         1.9481    1.6677    3.8585 C.ar      1 <0>        -0.0019
     18 C17         2.3062    1.4219    5.1741 C.ar      1 <0>        -0.2427
     19 C18         3.2554    2.2345    5.7825 C.ar      1 <0>         0.4279
     20 N2          3.8134    3.2376    5.1207 N.ar      1 <0>        -0.5447
     21 N3          3.6237    1.9920    7.1006 N.pl3     1 <0>        -0.9252
     22 C19         3.0122    0.8851    7.8403 C.3       1 <0>         0.0774
     23 S1          4.7538    2.9542    7.8350 S.o2      1 <0>         2.5969
     24 O1          5.3301    2.1333    8.8416 O.2       1 <0>        -0.9449
     25 O2          5.5474    3.4591    6.7698 O.2       1 <0>        -0.9049
     26 C20         3.7998    4.2973    8.5944 C.3       1 <0>        -0.6658
     27 C21         0.9570    0.7853    3.1439 C.3       1 <0>         0.1279
     28 O3          1.5319    0.3654    1.9019 O.3       1 <0>        -0.3631
     29 C22         0.8345   -0.5007    1.1549 C.2       1 <0>         0.4877
     30 O4          0.8741   -1.6819    1.4061 O.2       1 <0>        -0.4100
     31 N4         -1.3697   -0.5126    0.1345 N.4       1 <0>        -0.6228
     32 H1          0.9708    1.9011    0.2715 H         1 <0>         0.1328
     33 H2         -0.2966    1.8908   -0.9783 H         1 <0>         0.1127
     34 H3         -0.7451    1.8753    0.7441 H         1 <0>         0.0843
     35 H4          1.4272   -1.1787   -1.1045 H         1 <0>         0.1157
     36 H5         -0.1625   -1.0200   -1.8890 H         1 <0>         0.1095
     37 H6          0.0811    0.1165   -3.8948 H         1 <0>         0.1260
     38 H7          0.9029    2.0466   -5.1847 H         1 <0>         0.1306
     39 H8          2.3996    3.6907   -4.1232 H         1 <0>         0.1301
     40 H9          2.2526    1.4711   -0.4838 H         1 <0>         0.1309
     41 H10         4.2971    3.1969   -1.3622 H         1 <0>         0.0858
     42 H11         3.5056    4.5175   -2.2589 H         1 <0>         0.0802
     43 H12         2.5084    5.2414   -0.3666 H         1 <0>         0.0737
     44 H13         1.7617    3.6449   -0.1251 H         1 <0>         0.0629
     45 H14         3.4142    2.9397    1.3319 H         1 <0>         0.0891
     46 H15         4.6771    3.9138    0.5379 H         1 <0>         0.0763
     47 H16         3.9235    5.9272    1.5842 H         1 <0>         0.0908
     48 H17         2.3898    5.1789    2.0914 H         1 <0>         0.0695
     49 H18         4.8663    5.0316    3.5597 H         1 <0>         0.4190
     50 H19         2.2703    2.9636    2.1796 H         1 <0>         0.1541
     51 H20         1.8527    0.6083    5.7208 H         1 <0>         0.1412
     52 H21         3.6062   -0.0179    7.6997 H         1 <0>         0.0782
     53 H22         2.9745    1.1338    8.9008 H         1 <0>         0.0902
     54 H23         2.0008    0.7159    7.4706 H         1 <0>         0.0855
     55 H24         3.0957    3.8806    9.3146 H         1 <0>         0.1265
     56 H25         4.4782    4.9819    9.1036 H         1 <0>         0.1348
     57 H26         3.2524    4.8364    7.8212 H         1 <0>         0.1288
     58 H27         0.7349   -0.0875    3.7578 H         1 <0>         0.0901
     59 H28         0.0408    1.3441    2.9526 H         1 <0>         0.0884
     60 H29        -1.9279   -0.1793   -0.6372 H         1 <0>         0.4485
     61 H30        -1.3565   -1.5215    0.1290 H         1 <0>         0.4437
     62 H31        -1.7671   -0.1862    1.0026 H         1 <0>         0.4364
@<TRIPOS>BOND
     1    1    2 1
     2    1   32 1
     3    1   33 1
     4    1   34 1
     5    2   29 1
     6    2    3 1
     7    2   31 1
     8    3    4 1
     9    3   35 1
    10    3   36 1
    11    4    9 ar
    12    4    5 ar
    13    5    6 ar
    14    5   37 1
    15    6    7 ar
    16    6   38 1
    17    7    8 ar
    18    7   39 1
    19    8    9 ar
    20    8   10 1
    21    9   40 1
    22   10   11 1
    23   10   41 1
    24   10   42 1
    25   11   12 1
    26   11   43 1
    27   11   44 1
    28   12   13 1
    29   12   45 1
    30   12   46 1
    31   13   14 1
    32   13   47 1
    33   13   48 1
    34   14   15 1
    35   14   49 1
    36   15   20 ar
    37   15   16 ar
    38   16   17 ar
    39   16   50 1
    40   17   18 ar
    41   17   27 1
    42   18   19 ar
    43   18   51 1
    44   19   20 ar
    45   19   21 1
    46   21   22 1
    47   21   23 1
    48   22   52 1
    49   22   53 1
    50   22   54 1
    51   23   24 2
    52   23   25 2
    53   23   26 1
    54   26   55 1
    55   26   56 1
    56   26   57 1
    57   27   28 1
    58   27   58 1
    59   27   59 1
    60   28   29 1
    61   29   30 2
    62   31   60 1
    63   31   61 1
    64   31   62 1
@<TRIPOS>MOLECULE
CHEMBL565790
   62    66     0     0     0
SMALL
USER_CHARGES

@<TRIPOS>ATOM
      1 C1         -0.0933    1.4577    0.3202 C.3       1 <0>         0.0609
      2 N1         -0.0484    0.0045    0.1398 N.am      1 <0>        -0.5532
      3 C2         -1.1141   -0.8096    0.2593 C.2       1 <0>         0.5436
      4 O1         -2.2503   -0.4822    0.5276 O.2       1 <0>        -0.3932
      5 C3         -0.6155   -2.2137   -0.0076 C.3       1 <0>         0.2373
      6 N2          0.8215   -2.0465   -0.2787 N.pl3     1 <0>        -0.6651
      7 C4          1.0853   -0.7027   -0.1788 C.cat     1 <0>         0.7332
      8 N3          2.2586   -0.1684   -0.3596 N.pl3     1 <0>        -0.7330
      9 C5         -1.3129   -2.8007   -1.2077 C.ar      1 <0>        -0.1065
     10 C6         -2.6949   -2.8048   -1.2696 C.ar      1 <0>        -0.0897
     11 C7         -3.3414   -3.3420   -2.3679 C.ar      1 <0>        -0.0974
     12 C8         -2.6099   -3.8769   -3.4092 C.ar      1 <0>        -0.0878
     13 C9         -1.2179   -3.8750   -3.3523 C.ar      1 <0>        -0.0253
     14 C10        -0.5716   -3.3281   -2.2453 C.ar      1 <0>        -0.0951
     15 C11        -0.4262   -4.4486   -4.4686 C.ar      1 <0>        -0.1095
     16 C12        -1.0651   -4.9898   -5.5876 C.ar      1 <0>        -0.0615
     17 C13        -0.2818   -5.5126   -6.6020 C.ar      1 <0>        -0.1615
     18 C14         1.0953   -5.4830   -6.4769 C.ar      1 <0>         0.1086
     19 N4          1.6700   -4.9659   -5.4083 N.ar      1 <0>        -0.4793
     20 C15         0.9660   -4.4513   -4.4207 C.ar      1 <0>         0.1083
     21 C16        -0.8248   -3.0858    1.2034 C.ar      1 <0>        -0.1562
     22 C17        -2.0328   -3.0548    1.8758 C.ar      1 <0>        -0.0567
     23 C18        -2.2270   -3.8529    2.9864 C.ar      1 <0>        -0.1949
     24 C19        -1.2090   -4.6865    3.4268 C.ar      1 <0>         0.1589
     25 C20         0.0016   -4.7160    2.7503 C.ar      1 <0>        -0.0931
     26 C21         0.1891   -3.9196    1.6369 C.ar      1 <0>        -0.0550
     27 C22         1.1094   -5.6202    3.2259 C.3       1 <0>        -0.0524
     28 C23         2.3772   -4.7923    3.5211 C.3       1 <0>        -0.1139
     29 C24         3.5416   -5.7020    3.0568 C.3       1 <0>        -0.1278
     30 C25         2.9688   -6.3653    1.7798 C.3       1 <0>        -0.1244
     31 C26         1.4856   -6.6204    2.1187 C.3       1 <0>        -0.1187
     32 O2         -1.3975   -5.4723    4.5194 O.3       1 <0>        -0.3056
     33 C27        -2.6689   -5.3897    5.1664 C.3       1 <0>         0.0212
     34 H1          0.9017    1.8742    0.1631 H         1 <0>         0.0990
     35 H2         -0.7868    1.8919   -0.3998 H         1 <0>         0.1104
     36 H3         -0.4280    1.6881    1.3316 H         1 <0>         0.1106
     37 H4          2.3738    0.7906   -0.2702 H         1 <0>         0.4488
     38 H5         -3.2711   -2.3874   -0.4571 H         1 <0>         0.1376
     39 H6         -4.4205   -3.3432   -2.4108 H         1 <0>         0.1411
     40 H7         -3.1157   -4.2964   -4.2662 H         1 <0>         0.1369
     41 H8          0.5073   -3.3207   -2.1978 H         1 <0>         0.1215
     42 H9         -2.1427   -5.0002   -5.6589 H         1 <0>         0.1404
     43 H10        -0.7410   -5.9394   -7.4814 H         1 <0>         0.1447
     44 H11         1.7097   -5.8901   -7.2664 H         1 <0>         0.1634
     45 H12         1.4728   -4.0322   -3.5640 H         1 <0>         0.1483
     46 H13        -2.8249   -2.4058    1.5326 H         1 <0>         0.1392
     47 H14        -3.1704   -3.8278    3.5116 H         1 <0>         0.1419
     48 H15         1.1300   -3.9453    1.1074 H         1 <0>         0.1250
     49 H16         0.7953   -6.1556    4.1219 H         1 <0>         0.0937
     50 H17         2.3678   -3.8636    2.9506 H         1 <0>         0.0597
     51 H18         2.4574   -4.5847    4.5882 H         1 <0>         0.0700
     52 H19         4.4250   -5.1086    2.8208 H         1 <0>         0.0677
     53 H20         3.7702   -6.4530    3.8129 H         1 <0>         0.0730
     54 H21         3.0549   -5.6907    0.9280 H         1 <0>         0.0589
     55 H22         3.4807   -7.3058    1.5760 H         1 <0>         0.0705
     56 H23         1.3548   -7.6412    2.4776 H         1 <0>         0.0714
     57 H24         0.8668   -6.4518    1.2374 H         1 <0>         0.0646
     58 H25        -2.6863   -6.0658    6.0212 H         1 <0>         0.1092
     59 H26        -2.8372   -4.3682    5.5077 H         1 <0>         0.0607
     60 H27        -3.4531   -5.6719    4.4639 H         1 <0>         0.0617
     61 H28         1.4572   -2.7480   -0.4904 H         1 <0>         0.4621
     62 H29         3.0176   -0.7292   -0.5836 H         1 <0>         0.4525
@<TRIPOS>BOND
     1    1    2 1
     2    1   34 1
     3    1   35 1
     4    1   36 1
     5    2    7 1
     6    2    3 am
     7    3    4 2
     8    3    5 1
     9    5    6 1
    10    5    9 1
    11    5   21 1
    12    6    7 1
    13    6   61 1
    14    7    8 2
    15    8   37 1
    16    8   62 1
    17    9   14 ar
    18    9   10 ar
    19   10   11 ar
    20   10   38 1
    21   11   12 ar
    22   11   39 1
    23   12   13 ar
    24   12   40 1
    25   13   14 ar
    26   13   15 1
    27   14   41 1
    28   15   20 ar
    29   15   16 ar
    30   16   17 ar
    31   16   42 1
    32   17   18 ar
    33   17   43 1
    34   18   19 ar
    35   18   44 1
    36   19   20 ar
    37   20   45 1
    38   21   26 ar
    39   21   22 ar
    40   22   23 ar
    41   22   46 1
    42   23   24 ar
    43   23   47 1
    44   24   25 ar
    45   24   32 1
    46   25   26 ar
    47   25   27 1
    48   26   48 1
    49   27   31 1
    50   27   28 1
    51   27   49 1
    52   28   29 1
    53   28   50 1
    54   28   51 1
    55   29   30 1
    56   29   52 1
    57   29   53 1
    58   30   31 1
    59   30   54 1
    60   30   55 1
    61   31   56 1
    62   31   57 1
    63   32   33 1
    64   33   58 1
    65   33   59 1
    66   33   60 1
@<TRIPOS>MOLECULE
CHEMBL565790__1
   62    66     0     0     0
SMALL
USER_CHARGES

@<TRIPOS>ATOM
      1 C1         -1.5999    1.3385    0.3486 C.3       1 <0>         0.0626
      2 N1         -0.9703    0.0222    0.2182 N.am      1 <0>        -0.5527
      3 C2         -1.6426   -1.1416    0.0947 C.2       1 <0>         0.5431
      4 O1         -2.8445   -1.2999    0.0703 O.2       1 <0>        -0.3849
      5 C3         -0.5701   -2.2081   -0.0072 C.3       1 <0>         0.2267
      6 N2          0.6896   -1.4521    0.0784 N.pl3     1 <0>        -0.6257
      7 C4          0.3848   -0.1969    0.1987 C.cat     1 <0>         0.7334
      8 N3          1.3189    0.8062    0.3000 N.pl3     1 <0>        -0.7776
      9 C5         -0.6653   -2.9293   -1.3270 C.ar      1 <0>        -0.1077
     10 C6         -1.8830   -3.4265   -1.7559 C.ar      1 <0>        -0.0901
     11 C7         -1.9775   -4.0893   -2.9660 C.ar      1 <0>        -0.0949
     12 C8         -0.8561   -4.2579   -3.7530 C.ar      1 <0>        -0.0864
     13 C9          0.3726   -3.7589   -3.3263 C.ar      1 <0>        -0.0230
     14 C10         0.4612   -3.0876   -2.1082 C.ar      1 <0>        -0.0965
     15 C11         1.5817   -3.9371   -4.1680 C.ar      1 <0>        -0.1107
     16 C12         1.5007   -4.5997   -5.3959 C.ar      1 <0>        -0.0607
     17 C13         2.6571   -4.7401   -6.1436 C.ar      1 <0>        -0.1613
     18 C14         3.8446   -4.2250   -5.6562 C.ar      1 <0>         0.1094
     19 N4          3.8900   -3.6047   -4.4932 N.ar      1 <0>        -0.4795
     20 C15         2.8146   -3.4417   -3.7497 C.ar      1 <0>         0.1084
     21 C16        -0.6815   -3.1814    1.1379 C.ar      1 <0>        -0.1583
     22 C17         0.4366   -3.4946    1.8889 C.ar      1 <0>        -0.0630
     23 C18         0.3372   -4.3866    2.9388 C.ar      1 <0>        -0.1982
     24 C19        -0.8860   -4.9683    3.2399 C.ar      1 <0>         0.1601
     25 C20        -2.0062   -4.6522    2.4853 C.ar      1 <0>        -0.0866
     26 C21        -1.9026   -3.7553    1.4394 C.ar      1 <0>        -0.0491
     27 C22        -3.3363   -5.2821    2.8095 C.3       1 <0>        -0.0534
     28 C23        -3.8839   -6.0260    1.5740 C.3       1 <0>        -0.1162
     29 C24        -5.4116   -5.7762    1.6265 C.3       1 <0>        -0.1270
     30 C25        -5.5016   -4.3115    2.1220 C.3       1 <0>        -0.1263
     31 C26        -4.3649   -4.1920    3.1580 C.3       1 <0>        -0.1163
     32 O2         -0.9864   -5.8467    4.2720 O.3       1 <0>        -0.3036
     33 C27         0.2082   -6.1254    5.0051 C.3       1 <0>         0.0216
     34 H1         -0.8281    2.1043    0.4270 H         1 <0>         0.1003
     35 H2         -2.2181    1.5341   -0.5276 H         1 <0>         0.1094
     36 H3         -2.2220    1.3567    1.2435 H         1 <0>         0.1095
     37 H4          1.0323    1.7283    0.3915 H         1 <0>         0.4442
     38 H5          2.2648    0.5919    0.2800 H         1 <0>         0.4468
     39 H6         -2.7629   -3.2968   -1.1433 H         1 <0>         0.1389
     40 H7         -2.9305   -4.4761   -3.2957 H         1 <0>         0.1427
     41 H8         -0.9310   -4.7760   -4.6977 H         1 <0>         0.1381
     42 H9          1.4105   -2.6955   -1.7744 H         1 <0>         0.1205
     43 H10         0.5599   -4.9926   -5.7521 H         1 <0>         0.1409
     44 H11         2.6324   -5.2467   -7.0971 H         1 <0>         0.1451
     45 H12         4.7488   -4.3327   -6.2369 H         1 <0>         0.1638
     46 H13         2.8906   -2.9237   -2.8051 H         1 <0>         0.1481
     47 H14         1.3885   -3.0415    1.6542 H         1 <0>         0.1201
     48 H15         1.2108   -4.6314    3.5246 H         1 <0>         0.1412
     49 H16        -2.7752   -3.5057    0.8542 H         1 <0>         0.1436
     50 H17        -3.2278   -5.9738    3.6450 H         1 <0>         0.0937
     51 H18        -3.4605   -5.6101    0.6597 H         1 <0>         0.0657
     52 H19        -3.6690   -7.0923    1.6444 H         1 <0>         0.0703
     53 H20        -5.8537   -5.8765    0.6352 H         1 <0>         0.0698
     54 H21        -5.8897   -6.4535    2.3342 H         1 <0>         0.0714
     55 H22        -5.3395   -3.6187    1.2962 H         1 <0>         0.0647
     56 H23        -6.4674   -4.1265    2.5923 H         1 <0>         0.0693
     57 H24        -4.7562   -4.3551    4.1621 H         1 <0>         0.0703
     58 H25        -3.9020   -3.2073    3.0925 H         1 <0>         0.0614
     59 H26         0.9565   -6.5466    4.3338 H         1 <0>         0.0609
     60 H27         0.5901   -5.2027    5.4418 H         1 <0>         0.0598
     61 H28        -0.0110   -6.8396    5.7988 H         1 <0>         0.1097
     62 H29         1.5848   -1.8242    0.0462 H         1 <0>         0.4638
@<TRIPOS>BOND
     1    1    2 1
     2    1   34 1
     3    1   35 1
     4    1   36 1
     5    2    7 1
     6    2    3 am
     7    3    4 2
     8    3    5 1
     9    5    6 1
    10    5    9 1
    11    5   21 1
    12    6    7 2
    13    6   62 1
    14    7    8 1
    15    8   37 1
    16    8   38 1
    17    9   14 ar
    18    9   10 ar
    19   10   11 ar
    20   10   39 1
    21   11   12 ar
    22   11   40 1
    23   12   13 ar
    24   12   41 1
    25   13   14 ar
    26   13   15 1
    27   14   42 1
    28   15   20 ar
    29   15   16 ar
    30   16   17 ar
    31   16   43 1
    32   17   18 ar
    33   17   44 1
    34   18   19 ar
    35   18   45 1
    36   19   20 ar
    37   20   46 1
    38   21   26 ar
    39   21   22 ar
    40   22   23 ar
    41   22   47 1
    42   23   24 ar
    43   23   48 1
    44   24   25 ar
    45   24   32 1
    46   25   26 ar
    47   25   27 1
    48   26   49 1
    49   27   31 1
    50   27   28 1
    51   27   50 1
    52   28   29 1
    53   28   51 1
    54   28   52 1
    55   29   30 1
    56   29   53 1
    57   29   54 1
    58   30   31 1
    59   30   55 1
    60   30   56 1
    61   31   57 1
    62   31   58 1
    63   32   33 1
    64   33   59 1
    65   33   60 1
    66   33   61 1
@<TRIPOS>MOLECULE
CHEMBL565790__2
   62    66     0     0     0
SMALL
USER_CHARGES

@<TRIPOS>ATOM
      1 C1          0.9684    1.1369    0.3443 C.3       1 <0>         0.0607
      2 N1          0.5807   -0.2620    0.1471 N.am      1 <0>        -0.5531
      3 C2         -0.6736   -0.7304    0.2886 C.2       1 <0>         0.5424
      4 O1         -1.6570   -0.0896    0.5932 O.2       1 <0>        -0.3910
      5 C3         -0.6155   -2.2137   -0.0076 C.3       1 <0>         0.2369
      6 N2          0.8003   -2.4697   -0.3184 N.pl3     1 <0>        -0.6650
      7 C4          1.4489   -1.2641   -0.2118 C.cat     1 <0>         0.7331
      8 N3          2.7225   -1.0936   -0.4207 N.pl3     1 <0>        -0.7333
      9 C5         -1.0417   -3.0088    1.1995 C.ar      1 <0>        -0.1062
     10 C6         -2.1911   -2.6597    1.8856 C.ar      1 <0>        -0.0935
     11 C7         -2.5881   -3.3850    2.9943 C.ar      1 <0>        -0.0964
     12 C8         -1.8385   -4.4624    3.4219 C.ar      1 <0>        -0.0878
     13 C9         -0.6803   -4.8186    2.7345 C.ar      1 <0>        -0.0253
     14 C10        -0.2877   -4.0872    1.6152 C.ar      1 <0>        -0.0931
     15 C11         0.1295   -5.9759    3.1895 C.ar      1 <0>        -0.1096
     16 C12        -0.2619   -6.7219    4.3047 C.ar      1 <0>        -0.0614
     17 C13         0.5276   -7.7919    4.6888 C.ar      1 <0>        -0.1616
     18 C14         1.6681   -8.0858    3.9635 C.ar      1 <0>         0.1086
     19 N4          2.0123   -7.3631    2.9154 N.ar      1 <0>        -0.4797
     20 C15         1.2890   -6.3397    2.5087 C.ar      1 <0>         0.1082
     21 C16        -1.4836   -2.5482   -1.1932 C.ar      1 <0>        -0.1574
     22 C17        -0.9640   -3.2817   -2.2441 C.ar      1 <0>        -0.0621
     23 C18        -1.7574   -3.5892   -3.3321 C.ar      1 <0>        -0.1999
     24 C19        -3.0770   -3.1618   -3.3698 C.ar      1 <0>         0.1584
     25 C20        -3.5959   -2.4266   -2.3143 C.ar      1 <0>        -0.0881
     26 C21        -2.7996   -2.1260   -1.2259 C.ar      1 <0>        -0.0493
     27 C22        -5.0286   -1.9608   -2.3520 C.3       1 <0>        -0.0530
     28 C23        -5.0892   -0.4259   -2.2094 C.3       1 <0>        -0.1161
     29 C24        -6.3504   -0.1742   -1.3463 C.3       1 <0>        -0.1268
     30 C25        -6.3090   -1.3435   -0.3313 C.3       1 <0>        -0.1256
     31 C26        -5.8042   -2.5442   -1.1579 C.3       1 <0>        -0.1176
     32 O2         -3.8595   -3.4627   -4.4394 O.3       1 <0>        -0.3044
     33 C27        -3.2584   -4.2226   -5.4898 C.3       1 <0>         0.0221
     34 H1          2.0376    1.2467    0.1630 H         1 <0>         0.0988
     35 H2          0.4153    1.7687   -0.3507 H         1 <0>         0.1106
     36 H3          0.7408    1.4363    1.3674 H         1 <0>         0.1108
     37 H4          3.1160   -0.2123   -0.3244 H         1 <0>         0.4487
     38 H5         -2.7805   -1.8174    1.5545 H         1 <0>         0.1390
     39 H6         -3.4859   -3.1077    3.5266 H         1 <0>         0.1413
     40 H7         -2.1492   -5.0279    4.2880 H         1 <0>         0.1370
     41 H8          0.6073   -4.3614    1.0764 H         1 <0>         0.1214
     42 H9         -1.1576   -6.4697    4.8530 H         1 <0>         0.1406
     43 H10         0.2563   -8.3905    5.5458 H         1 <0>         0.1447
     44 H11         2.2865   -8.9200    4.2603 H         1 <0>         0.1634
     45 H12         1.6007   -5.7747    1.6427 H         1 <0>         0.1487
     46 H13         0.0631   -3.6141   -2.2142 H         1 <0>         0.1207
     47 H14        -1.3510   -4.1615   -4.1528 H         1 <0>         0.1400
     48 H15        -3.2043   -1.5571   -0.4019 H         1 <0>         0.1428
     49 H16        -5.4964   -2.2683   -3.2873 H         1 <0>         0.0930
     50 H17        -4.1991   -0.0546   -1.7016 H         1 <0>         0.0651
     51 H18        -5.1959    0.0441   -3.1870 H         1 <0>         0.0688
     52 H19        -6.2822    0.7852   -0.8333 H         1 <0>         0.0692
     53 H20        -7.2523   -0.2240   -1.9564 H         1 <0>         0.0711
     54 H21        -5.6159   -1.1203    0.4797 H         1 <0>         0.0635
     55 H22        -7.3059   -1.5430    0.0616 H         1 <0>         0.0695
     56 H23        -6.6489   -3.1342   -1.5137 H         1 <0>         0.0704
     57 H24        -5.1443   -3.1642   -0.5511 H         1 <0>         0.0644
     58 H25        -3.9900   -4.3927   -6.2797 H         1 <0>         0.1092
     59 H26        -2.4079   -3.6739   -5.8943 H         1 <0>         0.0593
     60 H27        -2.9188   -5.1808   -5.0965 H         1 <0>         0.0605
     61 H28         1.1968   -3.3225   -0.5558 H         1 <0>         0.4621
     62 H29         3.2779   -1.8479   -0.6726 H         1 <0>         0.4523
@<TRIPOS>BOND
     1    1    2 1
     2    1   34 1
     3    1   35 1
     4    1   36 1
     5    2    7 1
     6    2    3 am
     7    3    4 2
     8    3    5 1
     9    5    6 1
    10    5    9 1
    11    5   21 1
    12    6    7 1
    13    6   61 1
    14    7    8 2
    15    8   37 1
    16    8   62 1
    17    9   14 ar
    18    9   10 ar
    19   10   11 ar
    20   10   38 1
    21   11   12 ar
    22   11   39 1
    23   12   13 ar
    24   12   40 1
    25   13   14 ar
    26   13   15 1
    27   14   41 1
    28   15   20 ar
    29   15   16 ar
    30   16   17 ar
    31   16   42 1
    32   17   18 ar
    33   17   43 1
    34   18   19 ar
    35   18   44 1
    36   19   20 ar
    37   20   45 1
    38   21   26 ar
    39   21   22 ar
    40   22   23 ar
    41   22   46 1
    42   23   24 ar
    43   23   47 1
    44   24   25 ar
    45   24   32 1
    46   25   26 ar
    47   25   27 1
    48   26   48 1
    49   27   31 1
    50   27   28 1
    51   27   49 1
    52   28   29 1
    53   28   50 1
    54   28   51 1
    55   29   30 1
    56   29   52 1
    57   29   53 1
    58   30   31 1
    59   30   54 1
    60   30   55 1
    61   31   56 1
    62   31   57 1
    63   32   33 1
    64   33   58 1
    65   33   59 1
    66   33   60 1
@<TRIPOS>MOLECULE
CHEMBL565790__3
   62    66     0     0     0
SMALL
USER_CHARGES

@<TRIPOS>ATOM
      1 C1         -0.5663    1.4826   -0.3878 C.3       1 <0>         0.0626
      2 N1         -0.3301    0.0441   -0.2425 N.am      1 <0>        -0.5527
      3 C2         -1.3017   -0.8865   -0.1343 C.2       1 <0>         0.5428
      4 O1         -2.5005   -0.7048   -0.1384 O.2       1 <0>        -0.3868
      5 C3         -0.5701   -2.2081   -0.0072 C.3       1 <0>         0.2270
      6 N2          0.8516   -1.8322   -0.0639 N.pl3     1 <0>        -0.6239
      7 C4          0.9100   -0.5437   -0.2034 C.cat     1 <0>         0.7333
      8 N3          2.0877    0.1584   -0.2981 N.pl3     1 <0>        -0.7777
      9 C5         -0.8910   -2.8657    1.3102 C.ar      1 <0>        -0.1072
     10 C6          0.1320   -3.3293    2.1179 C.ar      1 <0>        -0.1029
     11 C7         -0.1554   -3.9337    3.3281 C.ar      1 <0>        -0.0991
     12 C8         -1.4661   -4.0772    3.7368 C.ar      1 <0>        -0.0879
     13 C9         -2.5002   -3.6118    2.9276 C.ar      1 <0>        -0.0164
     14 C10        -2.2047   -2.9992    1.7113 C.ar      1 <0>        -0.0870
     15 C11        -3.9112   -3.7632    3.3617 C.ar      1 <0>        -0.1159
     16 C12        -4.2170   -4.3667    4.5846 C.ar      1 <0>        -0.0601
     17 C13        -5.5486   -4.4842    4.9439 C.ar      1 <0>        -0.1653
     18 C14        -6.5247   -4.0051    4.0891 C.ar      1 <0>         0.1110
     19 N4         -6.2053   -3.4405    2.9408 N.ar      1 <0>        -0.4783
     20 C15        -4.9520   -3.3010    2.5595 C.ar      1 <0>         0.1154
     21 C16        -0.9220   -3.1198   -1.1544 C.ar      1 <0>        -0.1588
     22 C17        -2.2477   -3.3337   -1.4845 C.ar      1 <0>        -0.0516
     23 C18        -2.5729   -4.1692   -2.5352 C.ar      1 <0>        -0.1932
     24 C19        -1.5681   -4.7937   -3.2601 C.ar      1 <0>         0.1611
     25 C20        -0.2390   -4.5772   -2.9273 C.ar      1 <0>        -0.0917
     26 C21         0.0812   -3.7364   -1.8787 C.ar      1 <0>        -0.0585
     27 C22         0.8549   -5.2539   -3.7124 C.3       1 <0>        -0.0529
     28 C23         1.7414   -6.0926   -2.7687 C.3       1 <0>        -0.1159
     29 C24         3.1720   -5.9173   -3.3358 C.3       1 <0>        -0.1282
     30 C25         3.1843   -4.4334   -3.7796 C.3       1 <0>        -0.1239
     31 C26         1.7724   -4.1990   -4.3552 C.3       1 <0>        -0.1170
     32 O2         -1.8855   -5.6166   -4.2940 O.3       1 <0>        -0.3048
     33 C27        -3.2744   -5.7933   -4.5797 C.3       1 <0>         0.0206
     34 H1          0.3892    2.0024   -0.4584 H         1 <0>         0.1005
     35 H2         -1.1473    1.6659   -1.2917 H         1 <0>         0.1094
     36 H3         -1.1166    1.8498    0.4785 H         1 <0>         0.1095
     37 H4          2.0706    1.1230   -0.3982 H         1 <0>         0.4442
     38 H5          2.9361   -0.3108   -0.2647 H         1 <0>         0.4466
     39 H6          1.1589   -3.2191    1.8020 H         1 <0>         0.1204
     40 H7          0.6471   -4.2944    3.9545 H         1 <0>         0.1401
     41 H8         -1.6894   -4.5496    4.6820 H         1 <0>         0.1382
     42 H9         -3.0024   -2.6332    1.0819 H         1 <0>         0.1392
     43 H10        -3.4343   -4.7324    5.2327 H         1 <0>         0.1395
     44 H11        -5.8224   -4.9454    5.8813 H         1 <0>         0.1442
     45 H12        -7.5647   -4.0951    4.3661 H         1 <0>         0.1634
     46 H13        -4.7297   -2.8287    1.6140 H         1 <0>         0.1543
     47 H14        -3.0295   -2.8474   -0.9200 H         1 <0>         0.1374
     48 H15        -3.6085   -4.3365   -2.7921 H         1 <0>         0.1436
     49 H16         1.1160   -3.5643   -1.6217 H         1 <0>         0.1242
     50 H17         0.4215   -5.8912   -4.4832 H         1 <0>         0.0945
     51 H18         1.6849   -5.7081   -1.7504 H         1 <0>         0.0638
     52 H19         1.4450   -7.1411   -2.7986 H         1 <0>         0.0716
     53 H20         3.9188   -6.0953   -2.5620 H         1 <0>         0.0695
     54 H21         3.3330   -6.5769   -4.1886 H         1 <0>         0.0732
     55 H22         3.3609   -3.7810   -2.9245 H         1 <0>         0.0567
     56 H23         3.9410   -4.2711   -4.5472 H         1 <0>         0.0702
     57 H24         1.7848   -4.3248   -5.4378 H         1 <0>         0.0719
     58 H25         1.4264   -3.1975   -4.0992 H         1 <0>         0.0599
     59 H26        -3.7742   -6.2135   -3.7069 H         1 <0>         0.0622
     60 H27        -3.7205   -4.8295   -4.8248 H         1 <0>         0.0616
     61 H28        -3.3880   -6.4718   -5.4251 H         1 <0>         0.1099
     62 H29         1.6073   -2.4379   -0.0109 H         1 <0>         0.4641
@<TRIPOS>BOND
     1    1    2 1
     2    1   34 1
     3    1   35 1
     4    1   36 1
     5    2    7 1
     6    2    3 am
     7    3    4 2
     8    3    5 1
     9    5    6 1
    10    5    9 1
    11    5   21 1
    12    6    7 2
    13    6   62 1
    14    7    8 1
    15    8   37 1
    16    8   38 1
    17    9   14 ar
    18    9   10 ar
    19   10   11 ar
    20   10   39 1
    21   11   12 ar
    22   11   40 1
    23   12   13 ar
    24   12   41 1
    25   13   14 ar
    26   13   15 1
    27   14   42 1
    28   15   20 ar
    29   15   16 ar
    30   16   17 ar
    31   16   43 1
    32   17   18 ar
    33   17   44 1
    34   18   19 ar
    35   18   45 1
    36   19   20 ar
    37   20   46 1
    38   21   26 ar
    39   21   22 ar
    40   22   23 ar
    41   22   47 1
    42   23   24 ar
    43   23   48 1
    44   24   25 ar
    45   24   32 1
    46   25   26 ar
    47   25   27 1
    48   26   49 1
    49   27   31 1
    50   27   28 1
    51   27   50 1
    52   28   29 1
    53   28   51 1
    54   28   52 1
    55   29   30 1
    56   29   53 1
    57   29   54 1
    58   30   31 1
    59   30   55 1
    60   30   56 1
    61   31   57 1
    62   31   58 1
    63   32   33 1
    64   33   59 1
    65   33   60 1
    66   33   61 1
@<TRIPOS>MOLECULE
CHEMBL1090026
   43    46     0     0     0
SMALL
USER_CHARGES

@<TRIPOS>ATOM
      1 C1         -1.5927    1.3379    0.3751 C.3       1 <0>         0.0625
      2 N1         -0.9659    0.0220    0.2279 N.am      1 <0>        -0.5524
      3 C2         -1.6403   -1.1425    0.1240 C.2       1 <0>         0.5415
      4 O1         -2.8423   -1.3018    0.1332 O.2       1 <0>        -0.3771
      5 C3         -0.5701   -2.2081   -0.0072 C.3       1 <0>         0.2198
      6 N2          0.6908   -1.4510    0.0427 N.pl3     1 <0>        -0.6253
      7 C4          0.3884   -0.1960    0.1708 C.cat     1 <0>         0.7346
      8 N3          1.3241    0.8080    0.2453 N.pl3     1 <0>        -0.7747
      9 C5         -0.7014   -2.9302   -1.3234 C.ar      1 <0>        -0.0705
     10 C6          0.4029   -3.1270   -2.1383 C.ar      1 <0>        -0.1584
     11 C7          0.2440   -3.7937   -3.3385 C.ar      1 <0>         0.1189
     12 N4         -0.9398   -4.2395   -3.7109 N.ar      1 <0>        -0.4612
     13 C8         -2.0117   -4.0703   -2.9615 C.ar      1 <0>         0.1248
     14 C9         -1.9285   -3.4186   -1.7456 C.ar      1 <0>        -0.1453
     15 C10        -0.6486   -3.1807    1.1412 C.ar      1 <0>        -0.1245
     16 C11         0.4846   -3.4689    1.8807 C.ar      1 <0>        -0.0904
     17 C12         0.4197   -4.3602    2.9362 C.ar      1 <0>        -0.1037
     18 C13        -0.7775   -4.9674    3.2576 C.ar      1 <0>        -0.0732
     19 C14        -1.9221   -4.6809    2.5163 C.ar      1 <0>        -0.0250
     20 C15        -1.8519   -3.7779    1.4568 C.ar      1 <0>        -0.0538
     21 C16        -3.2114   -5.3307    2.8565 C.ar      1 <0>         0.1002
     22 C17        -3.3084   -6.1449    3.9851 C.ar      1 <0>         0.0694
     23 N5         -4.4578   -6.7206    4.2833 N.ar      1 <0>        -0.4295
     24 C18        -5.5157   -6.5266    3.5142 C.ar      1 <0>         0.0607
     25 C19        -5.4238   -5.7196    2.3936 C.ar      1 <0>         0.0616
     26 N6         -4.2795   -5.1348    2.0900 N.ar      1 <0>        -0.4304
     27 H1         -0.8198    2.1043    0.4315 H         1 <0>         0.1017
     28 H2         -2.2353    1.5323   -0.4836 H         1 <0>         0.1103
     29 H3         -2.1896    1.3560    1.2870 H         1 <0>         0.1104
     30 H4          1.0394    1.7300    0.3442 H         1 <0>         0.4451
     31 H5          2.2692    0.5946    0.1990 H         1 <0>         0.4475
     32 H6          1.3750   -2.7637   -1.8391 H         1 <0>         0.1331
     33 H7          1.0993   -3.9510   -3.9789 H         1 <0>         0.1701
     34 H8         -2.9647   -4.4492   -3.3000 H         1 <0>         0.1728
     35 H9         -2.8090   -3.2875   -1.1341 H         1 <0>         0.1517
     36 H10         1.4235   -2.9964    1.6325 H         1 <0>         0.1234
     37 H11         1.3075   -4.5818    3.5099 H         1 <0>         0.1452
     38 H12        -0.8269   -5.6635    4.0819 H         1 <0>         0.1435
     39 H13        -2.7369   -3.5488    0.8817 H         1 <0>         0.1504
     40 H14        -2.4445   -6.3039    4.6134 H         1 <0>         0.1721
     41 H15        -6.4547   -6.9997    3.7612 H         1 <0>         0.1786
     42 H16        -6.2908   -5.5644    1.7687 H         1 <0>         0.1793
     43 H17         1.5851   -1.8223   -0.0142 H         1 <0>         0.4657
@<TRIPOS>BOND
     1    1    2 1
     2    1   27 1
     3    1   28 1
     4    1   29 1
     5    2    7 1
     6    2    3 am
     7    3    4 2
     8    3    5 1
     9    5    6 1
    10    5    9 1
    11    5   15 1
    12    6    7 2
    13    6   43 1
    14    7    8 1
    15    8   30 1
    16    8   31 1
    17    9   14 ar
    18    9   10 ar
    19   10   11 ar
    20   10   32 1
    21   11   12 ar
    22   11   33 1
    23   12   13 ar
    24   13   14 ar
    25   13   34 1
    26   14   35 1
    27   15   20 ar
    28   15   16 ar
    29   16   17 ar
    30   16   36 1
    31   17   18 ar
    32   17   37 1
    33   18   19 ar
    34   18   38 1
    35   19   20 ar
    36   19   21 1
    37   20   39 1
    38   21   26 ar
    39   21   22 ar
    40   22   23 ar
    41   22   40 1
    42   23   24 ar
    43   24   25 ar
    44   24   41 1
    45   25   26 ar
    46   25   42 1
@<TRIPOS>MOLECULE
CHEMBL1090026__1
   43    46     0     0     0
SMALL
USER_CHARGES

@<TRIPOS>ATOM
      1 C1         -1.5565    1.3660    0.3915 C.3       1 <0>         0.0605
      2 N1         -0.9454    0.0433    0.2399 N.am      1 <0>        -0.5529
      3 C2         -1.6381   -1.1058    0.1281 C.2       1 <0>         0.5405
      4 O1         -2.8443   -1.2291    0.1344 O.2       1 <0>        -0.3829
      5 C3         -0.6155   -2.2137   -0.0076 C.3       1 <0>         0.2302
      6 N2          0.6827   -1.5220    0.0451 N.pl3     1 <0>        -0.6647
      7 C4          0.4083   -0.1842    0.1877 C.cat     1 <0>         0.7343
      8 N3          1.3139    0.7477    0.2664 N.pl3     1 <0>        -0.7303
      9 C5         -0.7805   -2.9238   -1.3266 C.ar      1 <0>        -0.0691
     10 C6         -2.0276   -3.3608   -1.7462 C.ar      1 <0>        -0.1474
     11 C7         -2.1404   -4.0084   -2.9619 C.ar      1 <0>         0.1231
     12 N4         -1.0797   -4.2121   -3.7185 N.ar      1 <0>        -0.4628
     13 C8          0.1215   -3.8104   -3.3515 C.ar      1 <0>         0.1168
     14 C9          0.3103   -3.1505   -2.1519 C.ar      1 <0>        -0.1570
     15 C10        -0.7399   -3.1879    1.1354 C.ar      1 <0>        -0.1232
     16 C11         0.3762   -3.5238    1.8808 C.ar      1 <0>        -0.0886
     17 C12         0.2694   -4.4168    2.9315 C.ar      1 <0>        -0.1057
     18 C13        -0.9528   -4.9781    3.2420 C.ar      1 <0>        -0.0746
     19 C14        -2.0803   -4.6434    2.4947 C.ar      1 <0>        -0.0269
     20 C15        -1.9677   -3.7388    1.4402 C.ar      1 <0>        -0.0553
     21 C16        -3.3963   -5.2437    2.8232 C.ar      1 <0>         0.1014
     22 C17        -3.5328   -6.0588    3.9471 C.ar      1 <0>         0.0687
     23 N5         -4.7059   -6.5904    4.2349 N.ar      1 <0>        -0.4296
     24 C18        -5.7502   -6.3514    3.4599 C.ar      1 <0>         0.0598
     25 C19        -5.6192   -5.5434    2.3440 C.ar      1 <0>         0.0614
     26 N6         -4.4508   -5.0024    2.0508 N.ar      1 <0>        -0.4305
     27 H1         -0.7744    2.1226    0.4548 H         1 <0>         0.1002
     28 H2         -2.1932    1.5728   -0.4688 H         1 <0>         0.1115
     29 H3         -2.1568    1.3869    1.3011 H         1 <0>         0.1116
     30 H4          1.0481    1.6748    0.3696 H         1 <0>         0.4496
     31 H5         -2.8999   -3.1975   -1.1307 H         1 <0>         0.1510
     32 H6         -3.1083   -4.3519   -3.2960 H         1 <0>         0.1715
     33 H7          0.9668   -3.9955   -3.9977 H         1 <0>         0.1688
     34 H8          1.2957   -2.8195   -1.8591 H         1 <0>         0.1335
     35 H9          1.3345   -3.0873    1.6411 H         1 <0>         0.1241
     36 H10         1.1439   -4.6757    3.5098 H         1 <0>         0.1440
     37 H11        -1.0351   -5.6756    4.0625 H         1 <0>         0.1424
     38 H12        -2.8391   -3.4725    0.8605 H         1 <0>         0.1499
     39 H13        -2.6800   -6.2546    4.5802 H         1 <0>         0.1720
     40 H14        -6.7086   -6.7885    3.6984 H         1 <0>         0.1783
     41 H15        -6.4752   -5.3513    1.7142 H         1 <0>         0.1790
     42 H16         1.5604   -1.9309   -0.0133 H         1 <0>         0.4642
     43 H17         2.2545    0.5149    0.2219 H         1 <0>         0.4531
@<TRIPOS>BOND
     1    1    2 1
     2    1   27 1
     3    1   28 1
     4    1   29 1
     5    2    7 1
     6    2    3 am
     7    3    4 2
     8    3    5 1
     9    5    6 1
    10    5    9 1
    11    5   15 1
    12    6    7 1
    13    6   42 1
    14    7    8 2
    15    8   30 1
    16    8   43 1
    17    9   14 ar
    18    9   10 ar
    19   10   11 ar
    20   10   31 1
    21   11   12 ar
    22   11   32 1
    23   12   13 ar
    24   13   14 ar
    25   13   33 1
    26   14   34 1
    27   15   20 ar
    28   15   16 ar
    29   16   17 ar
    30   16   35 1
    31   17   18 ar
    32   17   36 1
    33   18   19 ar
    34   18   37 1
    35   19   20 ar
    36   19   21 1
    37   20   38 1
    38   21   26 ar
    39   21   22 ar
    40   22   23 ar
    41   22   39 1
    42   23   24 ar
    43   24   25 ar
    44   24   40 1
    45   25   26 ar
    46   25   41 1
@<TRIPOS>MOLECULE
CHEMBL1090026__2
   43    46     0     0     0
SMALL
USER_CHARGES

@<TRIPOS>ATOM
      1 C1         -0.5465    1.4792   -0.4184 C.3       1 <0>         0.0625
      2 N1         -0.3180    0.0411   -0.2579 N.am      1 <0>        -0.5524
      3 C2         -1.2947   -0.8848   -0.1555 C.2       1 <0>         0.5413
      4 O1         -2.4926   -0.6985   -0.1776 O.2       1 <0>        -0.3761
      5 C3         -0.5701   -2.2081   -0.0072 C.3       1 <0>         0.2197
      6 N2          0.8537   -1.8381   -0.0473 N.pl3     1 <0>        -0.6254
      7 C4          0.9191   -0.5511   -0.1967 C.cat     1 <0>         0.7347
      8 N3          2.1008    0.1456   -0.2809 N.pl3     1 <0>        -0.7747
      9 C5         -0.9118   -2.8534    1.3110 C.ar      1 <0>        -0.0698
     10 C6          0.0857   -3.3320    2.1467 C.ar      1 <0>        -0.1585
     11 C7         -0.2658   -3.9178    3.3481 C.ar      1 <0>         0.1192
     12 N4         -1.5317   -4.0242    3.7018 N.ar      1 <0>        -0.4612
     13 C8         -2.5064   -3.5803    2.9324 C.ar      1 <0>         0.1248
     14 C9         -2.2309   -2.9774    1.7197 C.ar      1 <0>        -0.1461
     15 C10        -0.9097   -3.1280   -1.1516 C.ar      1 <0>        -0.1248
     16 C11         0.1023   -3.7440   -1.8660 C.ar      1 <0>        -0.0903
     17 C12        -0.2021   -4.5899   -2.9171 C.ar      1 <0>        -0.1037
     18 C13        -1.5187   -4.8239   -3.2590 C.ar      1 <0>        -0.0732
     19 C14        -2.5421   -4.2061   -2.5429 C.ar      1 <0>        -0.0250
     20 C15        -2.2296   -3.3588   -1.4812 C.ar      1 <0>        -0.0538
     21 C16        -3.9589   -4.4533   -2.9060 C.ar      1 <0>         0.1000
     22 C17        -4.2760   -5.3880   -3.8918 C.ar      1 <0>         0.0696
     23 N5         -5.5381   -5.6040   -4.2111 N.ar      1 <0>        -0.4294
     24 C18        -6.5007   -4.9362   -3.5981 C.ar      1 <0>         0.0608
     25 C19        -6.1905   -4.0081   -2.6195 C.ar      1 <0>         0.0614
     26 N6         -4.9310   -3.7888   -2.2892 N.ar      1 <0>        -0.4303
     27 H1          0.4120    1.9947   -0.4801 H         1 <0>         0.1016
     28 H2         -1.1141    1.6572   -1.3318 H         1 <0>         0.1103
     29 H3         -1.1072    1.8558    0.4371 H         1 <0>         0.1105
     30 H4          2.0889    1.1095   -0.3893 H         1 <0>         0.4451
     31 H5          2.9468   -0.3265   -0.2319 H         1 <0>         0.4475
     32 H6          1.1242   -3.2484    1.8622 H         1 <0>         0.1333
     33 H7          0.5052   -4.2931    4.0047 H         1 <0>         0.1702
     34 H8         -3.5315   -3.6854    3.2556 H         1 <0>         0.1727
     35 H9         -3.0333   -2.6114    1.0962 H         1 <0>         0.1513
     36 H10         1.1339   -3.5635   -1.6021 H         1 <0>         0.1233
     37 H11         0.5919   -5.0678   -3.4716 H         1 <0>         0.1452
     38 H12        -1.7553   -5.4843   -4.0802 H         1 <0>         0.1435
     39 H13        -3.0189   -2.8809   -0.9200 H         1 <0>         0.1505
     40 H14        -3.4900   -5.9334   -4.3931 H         1 <0>         0.1722
     41 H15        -7.5325   -5.1154   -3.8622 H         1 <0>         0.1786
     42 H16        -6.9805   -3.4652   -2.1218 H         1 <0>         0.1792
     43 H17         1.6062   -2.4463    0.0212 H         1 <0>         0.4657
@<TRIPOS>BOND
     1    1    2 1
     2    1   27 1
     3    1   28 1
     4    1   29 1
     5    2    7 1
     6    2    3 am
     7    3    4 2
     8    3    5 1
     9    5    6 1
    10    5    9 1
    11    5   15 1
    12    6    7 2
    13    6   43 1
    14    7    8 1
    15    8   30 1
    16    8   31 1
    17    9   14 ar
    18    9   10 ar
    19   10   11 ar
    20   10   32 1
    21   11   12 ar
    22   11   33 1
    23   12   13 ar
    24   13   14 ar
    25   13   34 1
    26   14   35 1
    27   15   20 ar
    28   15   16 ar
    29   16   17 ar
    30   16   36 1
    31   17   18 ar
    32   17   37 1
    33   18   19 ar
    34   18   38 1
    35   19   20 ar
    36   19   21 1
    37   20   39 1
    38   21   26 ar
    39   21   22 ar
    40   22   23 ar
    41   22   40 1
    42   23   24 ar
    43   24   25 ar
    44   24   41 1
    45   25   26 ar
    46   25   42 1
@<TRIPOS>MOLECULE
CHEMBL1090026__3
   43    46     0     0     0
SMALL
USER_CHARGES

@<TRIPOS>ATOM
      1 C1         -0.5531    1.4739   -0.5146 C.3       1 <0>         0.0608
      2 N1         -0.3234    0.0379   -0.3378 N.am      1 <0>        -0.5530
      3 C2         -1.2980   -0.8685   -0.1344 C.2       1 <0>         0.5437
      4 O1         -2.4887   -0.6501   -0.0665 O.2       1 <0>        -0.3877
      5 C3         -0.6155   -2.2137   -0.0076 C.3       1 <0>         0.2296
      6 N2          0.8168   -1.9138   -0.1662 N.pl3     1 <0>        -0.6642
      7 C4          0.9137   -0.5586   -0.3640 C.cat     1 <0>         0.7343
      8 N3          2.0335    0.0791   -0.5492 N.pl3     1 <0>        -0.7301
      9 C5         -0.8809   -2.8129    1.3494 C.ar      1 <0>        -0.0676
     10 C6          0.1579   -3.3123    2.1202 C.ar      1 <0>        -0.1563
     11 C7         -0.1237   -3.8544    3.3598 C.ar      1 <0>         0.1179
     12 N4         -1.3622   -3.9001    3.8105 N.ar      1 <0>        -0.4629
     13 C8         -2.3745   -3.4348    3.1050 C.ar      1 <0>         0.1227
     14 C9         -2.1688   -2.8727    1.8593 C.ar      1 <0>        -0.1495
     15 C10        -1.0821   -3.1454   -1.0963 C.ar      1 <0>        -0.1230
     16 C11        -2.4357   -3.3386   -1.3066 C.ar      1 <0>        -0.0795
     17 C12        -2.8711   -4.1919   -2.3042 C.ar      1 <0>        -0.1008
     18 C13        -1.9560   -4.8558   -3.0961 C.ar      1 <0>        -0.0734
     19 C14        -0.5913   -4.6651   -2.8888 C.ar      1 <0>        -0.0333
     20 C15        -0.1583   -3.7999   -1.8853 C.ar      1 <0>        -0.0615
     21 C16         0.3970   -5.3762   -3.7361 C.ar      1 <0>         0.1045
     22 C17        -0.0338   -6.1517   -4.8127 C.ar      1 <0>         0.0701
     23 N5          0.8496   -6.7824   -5.5634 N.ar      1 <0>        -0.4279
     24 C18         2.1405   -6.6798   -5.2961 C.ar      1 <0>         0.0594
     25 C19         2.5720   -5.9115   -4.2289 C.ar      1 <0>         0.0587
     26 N6          1.6962   -5.2723   -3.4754 N.ar      1 <0>        -0.4389
     27 H1          0.4010    1.9785   -0.6666 H         1 <0>         0.1000
     28 H2         -1.1920    1.6354   -1.3829 H         1 <0>         0.1117
     29 H3         -1.0394    1.8762    0.3741 H         1 <0>         0.1118
     30 H4          2.0284    1.0402   -0.6801 H         1 <0>         0.4495
     31 H5          1.1741   -3.2783    1.7563 H         1 <0>         0.1336
     32 H6          0.6797   -4.2455    3.9664 H         1 <0>         0.1689
     33 H7         -3.3753   -3.4899    3.5071 H         1 <0>         0.1720
     34 H8         -3.0013   -2.4888    1.2884 H         1 <0>         0.1501
     35 H9         -3.1552   -2.8214   -0.6892 H         1 <0>         0.1408
     36 H10        -3.9290   -4.3392   -2.4638 H         1 <0>         0.1468
     37 H11        -2.2970   -5.5222   -3.8746 H         1 <0>         0.1424
     38 H12         0.8981   -3.6449   -1.7232 H         1 <0>         0.1328
     39 H13        -1.0881   -6.2361   -5.0312 H         1 <0>         0.1734
     40 H14         2.8605   -7.1976   -5.9124 H         1 <0>         0.1780
     41 H15         3.6275   -5.8309   -4.0148 H         1 <0>         0.1777
     42 H16         1.5487   -2.5498   -0.1400 H         1 <0>         0.4651
     43 H17         2.8730   -0.4069   -0.5562 H         1 <0>         0.4534
@<TRIPOS>BOND
     1    1    2 1
     2    1   27 1
     3    1   28 1
     4    1   29 1
     5    2    7 1
     6    2    3 am
     7    3    4 2
     8    3    5 1
     9    5    6 1
    10    5    9 1
    11    5   15 1
    12    6    7 1
    13    6   42 1
    14    7    8 2
    15    8   30 1
    16    8   43 1
    17    9   14 ar
    18    9   10 ar
    19   10   11 ar
    20   10   31 1
    21   11   12 ar
    22   11   32 1
    23   12   13 ar
    24   13   14 ar
    25   13   33 1
    26   14   34 1
    27   15   20 ar
    28   15   16 ar
    29   16   17 ar
    30   16   35 1
    31   17   18 ar
    32   17   36 1
    33   18   19 ar
    34   18   37 1
    35   19   20 ar
    36   19   21 1
    37   20   38 1
    38   21   26 ar
    39   21   22 ar
    40   22   23 ar
    41   22   39 1
    42   23   24 ar
    43   24   25 ar
    44   24   40 1
    45   25   26 ar
    46   25   41 1
@<TRIPOS>MOLECULE
CHEMBL1090542
   61    65     0     0     0
SMALL
USER_CHARGES

@<TRIPOS>ATOM
      1 C1          1.8680    1.3751   -1.9857 C.ar      1 <0>        -0.1154
      2 C2          1.2335    2.2317   -1.1031 C.ar      1 <0>        -0.1044
      3 C3          0.6636    1.7413    0.0580 C.ar      1 <0>        -0.1102
      4 C4          0.7244    0.3917    0.3437 C.ar      1 <0>        -0.0309
      5 C5          1.3631   -0.4782   -0.5435 C.ar      1 <0>         0.0106
      6 C6          1.9360    0.0247   -1.7133 C.ar      1 <0>        -0.0698
      7 C7          1.4330   -1.9235   -0.2448 C.2       1 <0>         0.0846
      8 C8          2.5745   -2.6547   -0.0887 C.2       1 <0>        -0.1769
      9 C9          2.1984   -3.9749    0.1827 C.2       1 <0>        -0.1605
     10 C10         0.8345   -4.0237    0.1870 C.2       1 <0>         0.0443
     11 N1          0.3612   -2.7624   -0.0703 N.pl3     1 <0>        -0.4097
     12 C11        -1.0499   -2.3768   -0.1490 C.3       1 <0>         0.1405
     13 C12        -1.4820   -2.3442   -1.5924 C.ar      1 <0>         0.1138
     14 C13        -2.5963   -3.0576   -1.9850 C.ar      1 <0>        -0.1881
     15 C14        -2.9915   -3.0254   -3.3157 C.ar      1 <0>        -0.1243
     16 C15        -2.2452   -2.2708   -4.2087 C.ar      1 <0>         0.0254
     17 C16        -1.1300   -1.5750   -3.7400 C.ar      1 <0>         0.4041
     18 N2         -0.7922   -1.6294   -2.4620 N.ar      1 <0>        -0.4862
     19 N3         -0.3698   -0.8132   -4.6235 N.pl3     1 <0>        -0.8414
     20 O1         -2.5948   -2.2103   -5.5218 O.3       1 <0>        -0.3046
     21 C17        -3.7494   -2.9519   -5.9206 C.3       1 <0>         0.0603
     22 C18        -3.9837   -2.7631   -7.4207 C.3       1 <0>         0.0778
     23 O2         -2.8959   -3.3366   -8.1486 O.3       1 <0>        -0.5669
     24 C19         0.0108   -5.2256    0.4319 C.ar      1 <0>         0.0030
     25 C20        -1.2690   -5.3214   -0.1186 C.ar      1 <0>        -0.1277
     26 C21        -2.0341   -6.4445    0.1120 C.ar      1 <0>        -0.1078
     27 C22        -1.5338   -7.4801    0.8906 C.ar      1 <0>         0.0632
     28 C23        -0.2614   -7.3889    1.4399 C.ar      1 <0>        -0.1205
     29 C24         0.5122   -6.2714    1.2098 C.ar      1 <0>        -0.0868
     30 O3         -2.2912   -8.5853    1.1158 O.3       1 <0>        -0.2410
     31 C25        -2.8895   -8.7123    2.3295 C.ar      1 <0>         0.0188
     32 C26        -2.8321   -7.6837    3.2644 C.ar      1 <0>         0.0828
     33 N4         -3.4276   -7.8458    4.4344 N.ar      1 <0>        -0.4848
     34 C27        -4.0681   -8.9620    4.7186 C.ar      1 <0>         0.2591
     35 N5         -4.1444   -9.9589    3.8600 N.ar      1 <0>        -0.4822
     36 C28        -3.5800   -9.8720    2.6668 C.ar      1 <0>         0.1314
     37 Cl1         0.0098   -0.2223    1.8018 Cl        1 <0>        -0.0644
     38 H1          2.3071    1.7644   -2.8924 H         1 <0>         0.1299
     39 H2          1.1834    3.2882   -1.3218 H         1 <0>         0.1307
     40 H3          0.1703    2.4154    0.7426 H         1 <0>         0.1326
     41 H4          2.4312   -0.6423   -2.4034 H         1 <0>         0.1313
     42 H5          3.5855   -2.2819   -0.1617 H         1 <0>         0.1404
     43 H6          2.8667   -4.8052    0.3573 H         1 <0>         0.1409
     44 H7         -1.6555   -3.1014    0.3952 H         1 <0>         0.1089
     45 H8         -1.1817   -1.3888    0.2920 H         1 <0>         0.1142
     46 H9         -3.1553   -3.6357   -1.2641 H         1 <0>         0.1360
     47 H10        -3.8597   -3.5753   -3.6477 H         1 <0>         0.1405
     48 H11        -0.6161   -0.7677   -5.5606 H         1 <0>         0.4138
     49 H12         0.4062   -0.3280   -4.3018 H         1 <0>         0.4036
     50 H13        -3.5934   -4.0094   -5.7075 H         1 <0>         0.0704
     51 H14        -4.6191   -2.5946   -5.3692 H         1 <0>         0.0769
     52 H15        -4.9128   -3.2552   -7.7081 H         1 <0>         0.0703
     53 H16        -4.0512   -1.6989   -7.6468 H         1 <0>         0.0586
     54 H17        -2.9778   -3.2535   -9.1086 H         1 <0>         0.3840
     55 H18        -1.6590   -4.5164   -0.7238 H         1 <0>         0.1425
     56 H19        -3.0241   -6.5192   -0.3131 H         1 <0>         0.1350
     57 H20         0.1239   -8.1962    2.0451 H         1 <0>         0.1351
     58 H21         1.5030   -6.2030    1.6339 H         1 <0>         0.1394
     59 H22        -2.3087   -6.7665    3.0384 H         1 <0>         0.1694
     60 H23        -4.5438   -9.0627    5.6829 H         1 <0>         0.2020
     61 H24        -3.6507  -10.6910    1.9663 H         1 <0>         0.1787
@<TRIPOS>BOND
     1    1    6 ar
     2    1    2 ar
     3    1   38 1
     4    2    3 ar
     5    2   39 1
     6    3    4 ar
     7    3   40 1
     8    4    5 ar
     9    4   37 1
    10    5    6 ar
    11    5    7 1
    12    6   41 1
    13    7   11 1
    14    7    8 2
    15    8    9 1
    16    8   42 1
    17    9   10 2
    18    9   43 1
    19   10   11 1
    20   10   24 1
    21   11   12 1
    22   12   13 1
    23   12   44 1
    24   12   45 1
    25   13   18 ar
    26   13   14 ar
    27   14   15 ar
    28   14   46 1
    29   15   16 ar
    30   15   47 1
    31   16   17 ar
    32   16   20 1
    33   17   18 ar
    34   17   19 1
    35   19   48 1
    36   19   49 1
    37   20   21 1
    38   21   22 1
    39   21   50 1
    40   21   51 1
    41   22   23 1
    42   22   52 1
    43   22   53 1
    44   23   54 1
    45   24   29 ar
    46   24   25 ar
    47   25   26 ar
    48   25   55 1
    49   26   27 ar
    50   26   56 1
    51   27   28 ar
    52   27   30 1
    53   28   29 ar
    54   28   57 1
    55   29   58 1
    56   30   31 1
    57   31   36 ar
    58   31   32 ar
    59   32   33 ar
    60   32   59 1
    61   33   34 ar
    62   34   35 ar
    63   34   60 1
    64   35   36 ar
    65   36   61 1
@<TRIPOS>MOLECULE
CHEMBL217374
   84    86     0     0     0
SMALL
USER_CHARGES

@<TRIPOS>ATOM
      1 C1          0.1161   -2.1809    1.0295 C.3       1 <0>        -0.1598
      2 C2         -1.0438   -2.0052    0.0472 C.3       1 <0>        -0.1462
      3 C3         -1.5336   -0.5564    0.0903 C.3       1 <0>         0.0005
      4 H1         -0.6943    0.1163   -0.0864 H         1 <0>         0.1661
      5 C4         -2.5781   -0.3473   -0.9757 C.2       1 <0>         0.5060
      6 O1         -3.6980    0.0013   -0.6672 O.2       1 <0>        -0.5210
      7 N1         -2.2677   -0.5476   -2.2718 N.am      1 <0>        -0.6984
      8 C5         -3.2831   -0.3443   -3.3081 C.3       1 <0>         0.1184
      9 C6         -2.6757   -0.6367   -4.6816 C.3       1 <0>        -0.1090
     10 C7         -2.2996   -2.1172   -4.7683 C.3       1 <0>        -0.1539
     11 C8         -3.6967   -0.3051   -5.7718 C.3       1 <0>        -0.1491
     12 N2         -2.1167   -0.2757    1.4091 N.4       1 <0>        -0.4958
     13 C9         -2.4409    1.1538    1.5069 C.3       1 <0>        -0.0403
     14 C10        -3.1695    1.4241    2.8324 C.3       1 <0>         0.1110
     15 C11        -3.3586    2.9415    2.9896 C.3       1 <0>        -0.0810
     16 C12        -4.6467    3.3578    2.3287 C.ar      1 <0>        -0.1010
     17 C13        -4.6599    4.2734    1.2954 C.ar      1 <0>        -0.1129
     18 C14        -5.8593    4.6194    0.6985 C.ar      1 <0>        -0.1104
     19 C15        -7.0457    4.0509    1.1196 C.ar      1 <0>        -0.1078
     20 C16        -7.0365    3.1395    2.1638 C.ar      1 <0>        -0.0681
     21 C17        -5.8413    2.8212    2.7780 C.ar      1 <0>        -0.1227
     22 C18        -8.3244    2.4956    2.6071 C.3       1 <0>        -0.0883
     23 C19        -8.2702    0.9834    2.3628 C.3       1 <0>        -0.1130
     24 C20        -7.1095    0.3779    3.1431 C.3       1 <0>        -0.1315
     25 C21        -7.2032   -1.1432    3.2412 C.3       1 <0>        -0.0886
     26 C22        -5.8150   -1.6924    3.4758 C.ar      1 <0>        -0.0430
     27 C23        -4.8012   -0.8312    3.8527 C.ar      1 <0>        -0.1218
     28 C24        -3.4971   -1.2867    4.0108 C.ar      1 <0>        -0.1300
     29 C25        -3.2379   -2.6539    3.8526 C.ar      1 <0>        -0.1270
     30 C26        -4.2642   -3.5219    3.5198 C.ar      1 <0>         0.1810
     31 C27        -5.5588   -3.0415    3.3302 C.ar      1 <0>        -0.1071
     32 N3         -4.0020   -4.8862    3.3620 N.pl3     1 <0>        -0.9429
     33 C28        -5.0744   -5.8654    3.5556 C.3       1 <0>         0.0754
     34 S1         -2.4793   -5.3952    2.9561 S.o2      1 <0>         2.6019
     35 O2         -2.6764   -6.6384    2.2965 O.2       1 <0>        -0.9321
     36 O3         -1.9002   -4.2944    2.2690 O.2       1 <0>        -0.9531
     37 C29        -1.6368   -5.6557    4.5413 C.3       1 <0>        -0.6726
     38 C30        -2.3851   -0.3755    4.3146 C.2       1 <0>         0.5403
     39 O4         -1.4068   -0.8270    4.8965 O.2       1 <0>        -0.4975
     40 N4         -2.3458    0.9276    3.9454 N.am      1 <0>        -0.7411
     41 H2          0.4188   -3.2278    1.0507 H         1 <0>         0.0926
     42 H3          0.9578   -1.5657    0.7115 H         1 <0>         0.0690
     43 H4         -0.2021   -1.8744    2.0259 H         1 <0>         0.0523
     44 H5         -0.7055   -2.2445   -0.9610 H         1 <0>         0.1130
     45 H6         -1.8594   -2.6729    0.3249 H         1 <0>         0.1082
     46 H7         -1.3719   -0.8263   -2.5185 H         1 <0>         0.4097
     47 H8         -4.1223   -1.0170   -3.1313 H         1 <0>         0.0805
     48 H9         -3.6320    0.6879   -3.2773 H         1 <0>         0.0803
     49 H10        -1.7835   -0.0264   -4.8217 H         1 <0>         0.0804
     50 H11        -1.8669   -2.3255   -5.7468 H         1 <0>         0.0662
     51 H12        -1.5722   -2.3534   -3.9916 H         1 <0>         0.0511
     52 H13        -3.1918   -2.7275   -4.6282 H         1 <0>         0.0611
     53 H14        -3.9646    0.7496   -5.7100 H         1 <0>         0.0608
     54 H15        -3.2640   -0.5134   -6.7503 H         1 <0>         0.0675
     55 H16        -4.5889   -0.9154   -5.6317 H         1 <0>         0.0613
     56 H17        -2.9579   -0.8202    1.5276 H         1 <0>         0.4294
     57 H18        -1.5214    1.7381    1.4720 H         1 <0>         0.1381
     58 H19        -3.0840    1.4383    0.6742 H         1 <0>         0.1626
     59 H20        -4.1383    0.9391    2.8042 H         1 <0>         0.1245
     60 H21        -3.3814    3.2012    4.0462 H         1 <0>         0.1064
     61 H22        -2.5263    3.4563    2.5038 H         1 <0>         0.0923
     62 H23        -3.7381    4.7186    0.9514 H         1 <0>         0.1226
     63 H24        -5.8650    5.3424   -0.1035 H         1 <0>         0.1245
     64 H25        -7.9740    4.3121    0.6356 H         1 <0>         0.1261
     65 H26        -5.8283    2.1632    3.6350 H         1 <0>         0.1230
     66 H27        -8.4938    2.6908    3.6651 H         1 <0>         0.0790
     67 H28        -9.1477    2.9201    2.0290 H         1 <0>         0.0764
     68 H29        -9.2114    0.5358    2.6703 H         1 <0>         0.0745
     69 H30        -8.1194    0.8084    1.2941 H         1 <0>         0.0667
     70 H31        -6.1744    0.6289    2.6259 H         1 <0>         0.0691
     71 H32        -7.0873    0.7997    4.1502 H         1 <0>         0.0692
     72 H33        -7.8388   -1.4235    4.0793 H         1 <0>         0.0918
     73 H34        -7.6015   -1.5530    2.3180 H         1 <0>         0.0892
     74 H35        -5.0404    0.1988    4.0800 H         1 <0>         0.1426
     75 H36        -2.2363   -3.0322    3.9966 H         1 <0>         0.1432
     76 H37        -6.3514   -3.7284    3.0733 H         1 <0>         0.1454
     77 H38        -5.5829   -6.0396    2.6074 H         1 <0>         0.0772
     78 H39        -4.6502   -6.8019    3.9178 H         1 <0>         0.0884
     79 H40        -5.7878   -5.4833    4.2857 H         1 <0>         0.0872
     80 H41        -2.1733   -6.4088    5.1184 H         1 <0>         0.1360
     81 H42        -0.6173   -5.9954    4.3594 H         1 <0>         0.1400
     82 H43        -1.6138   -4.7192    5.0987 H         1 <0>         0.1333
     83 H44        -1.7580    1.5514    4.4301 H         1 <0>         0.4256
     84 H45        -1.4535   -0.5202    2.1291 H         1 <0>         0.4277
@<TRIPOS>BOND
     1    1    2 1
     2    1   41 1
     3    1   42 1
     4    1   43 1
     5    2    3 1
     6    2   44 1
     7    2   45 1
     8    3    4 1
     9    3    5 1
    10    3   12 1
    11    5    6 2
    12    5    7 am
    13    7    8 1
    14    7   46 1
    15    8    9 1
    16    8   47 1
    17    8   48 1
    18    9   10 1
    19    9   11 1
    20    9   49 1
    21   10   50 1
    22   10   51 1
    23   10   52 1
    24   11   53 1
    25   11   54 1
    26   11   55 1
    27   12   13 1
    28   12   56 1
    29   12   84 1
    30   13   14 1
    31   13   57 1
    32   13   58 1
    33   14   40 1
    34   14   15 1
    35   14   59 1
    36   15   16 1
    37   15   60 1
    38   15   61 1
    39   16   21 ar
    40   16   17 ar
    41   17   18 ar
    42   17   62 1
    43   18   19 ar
    44   18   63 1
    45   19   20 ar
    46   19   64 1
    47   20   21 ar
    48   20   22 1
    49   21   65 1
    50   22   23 1
    51   22   66 1
    52   22   67 1
    53   23   24 1
    54   23   68 1
    55   23   69 1
    56   24   25 1
    57   24   70 1
    58   24   71 1
    59   25   26 1
    60   25   72 1
    61   25   73 1
    62   26   31 ar
    63   26   27 ar
    64   27   28 ar
    65   27   74 1
    66   28   29 ar
    67   28   38 1
    68   29   30 ar
    69   29   75 1
    70   30   31 ar
    71   30   32 1
    72   31   76 1
    73   32   33 1
    74   32   34 1
    75   33   77 1
    76   33   78 1
    77   33   79 1
    78   34   35 2
    79   34   36 2
    80   34   37 1
    81   37   80 1
    82   37   81 1
    83   37   82 1
    84   38   39 2
    85   38   40 am
    86   40   83 1
@<TRIPOS>MOLECULE
CHEMBL217374__1
   83    85     0     0     0
SMALL
USER_CHARGES

@<TRIPOS>ATOM
      1 C1         -1.7869   -0.7588   -0.3449 C.3       1 <0>        -0.1446
      2 C2         -0.4784   -0.0164   -0.0665 C.3       1 <0>        -0.1005
      3 C3          0.5848   -0.4620   -1.0724 C.3       1 <0>         0.0731
      4 H1          1.5071    0.0912   -0.8953 H         1 <0>         0.0678
      5 C4          0.8447   -1.9374   -0.9082 C.2       1 <0>         0.5063
      6 O1          0.6527   -2.6939   -1.8365 O.2       1 <0>        -0.5028
      7 N1          1.2904   -2.4161    0.2702 N.am      1 <0>        -0.7318
      8 C5          1.5430   -3.8503    0.4298 C.3       1 <0>         0.1263
      9 C6          2.0382   -4.1259    1.8510 C.3       1 <0>        -0.1088
     10 C7          2.1829   -5.6351    2.0569 C.3       1 <0>        -0.1464
     11 C8          3.3952   -3.4504    2.0582 C.3       1 <0>        -0.1481
     12 N2          0.1094   -0.1974   -2.4369 N.3       1 <0>        -0.6619
     13 C9          0.6402    1.0759   -2.9417 C.3       1 <0>         0.0410
     14 C10         0.0145    1.3850   -4.3105 C.3       1 <0>         0.1388
     15 C11         0.4578    2.7901   -4.7485 C.3       1 <0>        -0.0904
     16 C12         1.7631    2.6947   -5.4946 C.ar      1 <0>        -0.0811
     17 C13         2.8932    3.3515   -5.0502 C.ar      1 <0>        -0.1169
     18 C14         4.0806    3.2271   -5.7499 C.ar      1 <0>        -0.1153
     19 C15         4.1504    2.4440   -6.8855 C.ar      1 <0>        -0.1191
     20 C16         3.0147    1.7921   -7.3397 C.ar      1 <0>        -0.0740
     21 C17         1.8242    1.9448   -6.6568 C.ar      1 <0>        -0.1214
     22 C18         3.0934    0.9141   -8.5616 C.3       1 <0>        -0.0837
     23 C19         2.7891   -0.5406   -8.1868 C.3       1 <0>        -0.1122
     24 C20         1.3911   -0.6355   -7.5873 C.3       1 <0>        -0.1321
     25 C21         0.8805   -2.0733   -7.5230 C.3       1 <0>        -0.0798
     26 C22        -0.1713   -2.1579   -6.4411 C.ar      1 <0>        -0.0598
     27 C23        -0.7092   -0.9924   -5.9275 C.ar      1 <0>        -0.1251
     28 C24        -1.6278   -1.0271   -4.8844 C.ar      1 <0>        -0.0745
     29 C25        -2.0580   -2.2717   -4.4076 C.ar      1 <0>        -0.0946
     30 C26        -1.5517   -3.4385   -4.9550 C.ar      1 <0>         0.1771
     31 C27        -0.6044   -3.3839   -5.9760 C.ar      1 <0>        -0.1214
     32 N3         -1.9827   -4.6795   -4.4763 N.pl3     1 <0>        -0.9408
     33 C28        -1.9145   -5.8614   -5.3392 C.3       1 <0>         0.0823
     34 S1         -2.5704   -4.8133   -2.9339 S.o2      1 <0>         2.5914
     35 O2         -2.3293   -6.1656   -2.5700 O.2       1 <0>        -0.9490
     36 O3         -1.9563   -3.7502   -2.2184 O.2       1 <0>        -0.9041
     37 C29        -4.3533   -4.5157   -3.0868 C.3       1 <0>        -0.6803
     38 C30        -2.1396    0.1986   -4.2559 C.2       1 <0>         0.5855
     39 O4         -3.2382    0.1592   -3.7163 O.2       1 <0>        -0.5363
     40 N4         -1.4511    1.3635   -4.1867 N.am      1 <0>        -0.7204
     41 H2         -2.1593   -0.4812   -1.3310 H         1 <0>         0.0759
     42 H3         -1.6087   -1.8336   -0.3131 H         1 <0>         0.0585
     43 H4         -2.5249   -0.4903    0.4110 H         1 <0>         0.0396
     44 H5         -0.6421    1.0569   -0.1624 H         1 <0>         0.0669
     45 H6         -0.1399   -0.2434    0.9445 H         1 <0>         0.0568
     46 H7          1.4439   -1.8110    1.0126 H         1 <0>         0.3965
     47 H8          0.6207   -4.4036    0.2527 H         1 <0>         0.0681
     48 H9          2.3004   -4.1678   -0.2869 H         1 <0>         0.0643
     49 H10         1.3210   -3.7283    2.5691 H         1 <0>         0.0762
     50 H11         2.9001   -6.0326    1.3388 H         1 <0>         0.0579
     51 H12         2.5357   -5.8314    3.0694 H         1 <0>         0.0604
     52 H13         1.2161   -6.1163    1.9093 H         1 <0>         0.0587
     53 H14         3.2921   -2.3753    1.9114 H         1 <0>         0.0530
     54 H15         3.7480   -3.6467    3.0706 H         1 <0>         0.0580
     55 H16         4.1124   -3.8480    1.3400 H         1 <0>         0.0567
     56 H17         0.3455   -0.9584   -3.0560 H         1 <0>         0.3584
     57 H18         0.3954    1.8747   -2.2416 H         1 <0>         0.0777
     58 H19         1.7228    1.0027   -3.0453 H         1 <0>         0.0404
     59 H20         0.3661    0.6535   -5.0289 H         1 <0>         0.0995
     60 H21        -0.3042    3.2334   -5.3867 H         1 <0>         0.0900
     61 H22         0.5993    3.4117   -3.8611 H         1 <0>         0.0821
     62 H23         2.8537    3.9600   -4.1589 H         1 <0>         0.1209
     63 H24         4.9595    3.7498   -5.4029 H         1 <0>         0.1198
     64 H25         5.0852    2.3372   -7.4139 H         1 <0>         0.1210
     65 H26         0.9176    1.4960   -7.0366 H         1 <0>         0.1242
     66 H27         2.3827    1.2561   -9.3127 H         1 <0>         0.0758
     67 H28         4.1033    0.9719   -8.9724 H         1 <0>         0.0713
     68 H29         2.8672   -1.1639   -9.0735 H         1 <0>         0.0701
     69 H30         3.5240   -0.8709   -7.4476 H         1 <0>         0.0637
     70 H31         1.4240   -0.2396   -6.5640 H         1 <0>         0.0741
     71 H32         0.6977   -0.0369   -8.1818 H         1 <0>         0.0661
     72 H33         0.4299   -2.3510   -8.4742 H         1 <0>         0.0811
     73 H34         1.6965   -2.7491   -7.2857 H         1 <0>         0.0803
     74 H35        -0.4508   -0.0460   -6.3828 H         1 <0>         0.1303
     75 H36        -2.7908   -2.3208   -3.6153 H         1 <0>         0.1336
     76 H37        -0.2188   -4.3005   -6.3968 H         1 <0>         0.1311
     77 H38        -0.9494   -6.3511   -5.2091 H         1 <0>         0.0697
     78 H39        -2.7123   -6.5538   -5.0708 H         1 <0>         0.0794
     79 H40        -2.0309   -5.5587   -6.3799 H         1 <0>         0.0815
     80 H41        -4.7904   -5.2614   -3.7509 H         1 <0>         0.1267
     81 H42        -4.8191   -4.5869   -2.1040 H         1 <0>         0.1323
     82 H43        -4.5216   -3.5202   -3.4975 H         1 <0>         0.1325
     83 H44        -1.9393    2.2080   -4.0525 H         1 <0>         0.4065
@<TRIPOS>BOND
     1    1    2 1
     2    1   41 1
     3    1   42 1
     4    1   43 1
     5    2    3 1
     6    2   44 1
     7    2   45 1
     8    3    4 1
     9    3    5 1
    10    3   12 1
    11    5    6 2
    12    5    7 am
    13    7    8 1
    14    7   46 1
    15    8    9 1
    16    8   47 1
    17    8   48 1
    18    9   10 1
    19    9   11 1
    20    9   49 1
    21   10   50 1
    22   10   51 1
    23   10   52 1
    24   11   53 1
    25   11   54 1
    26   11   55 1
    27   12   13 1
    28   12   56 1
    29   13   14 1
    30   13   57 1
    31   13   58 1
    32   14   40 1
    33   14   15 1
    34   14   59 1
    35   15   16 1
    36   15   60 1
    37   15   61 1
    38   16   21 ar
    39   16   17 ar
    40   17   18 ar
    41   17   62 1
    42   18   19 ar
    43   18   63 1
    44   19   20 ar
    45   19   64 1
    46   20   21 ar
    47   20   22 1
    48   21   65 1
    49   22   23 1
    50   22   66 1
    51   22   67 1
    52   23   24 1
    53   23   68 1
    54   23   69 1
    55   24   25 1
    56   24   70 1
    57   24   71 1
    58   25   26 1
    59   25   72 1
    60   25   73 1
    61   26   31 ar
    62   26   27 ar
    63   27   28 ar
    64   27   74 1
    65   28   29 ar
    66   28   38 1
    67   29   30 ar
    68   29   75 1
    69   30   31 ar
    70   30   32 1
    71   31   76 1
    72   32   33 1
    73   32   34 1
    74   33   77 1
    75   33   78 1
    76   33   79 1
    77   34   35 2
    78   34   36 2
    79   34   37 1
    80   37   80 1
    81   37   81 1
    82   37   82 1
    83   38   39 2
    84   38   40 am
    85   40   83 1
@<TRIPOS>MOLECULE
CHEMBL217374__2
   84    86     0     0     0
SMALL
USER_CHARGES

@<TRIPOS>ATOM
      1 C1          0.1146   -2.1789    1.0273 C.3       1 <0>        -0.1728
      2 C2         -1.0460   -2.0053    0.0456 C.3       1 <0>        -0.1473
      3 C3         -1.5381   -0.5573    0.0885 C.3       1 <0>         0.0016
      4 H1         -0.7007    0.1166   -0.0924 H         1 <0>         0.1694
      5 C4         -2.5871   -0.3515   -0.9738 C.2       1 <0>         0.5045
      6 O1         -3.7064   -0.0045   -0.6615 O.2       1 <0>        -0.5210
      7 N1         -2.2813   -0.5532   -2.2708 N.am      1 <0>        -0.6971
      8 C5         -3.3010   -0.3531   -3.3035 C.3       1 <0>         0.1171
      9 C6         -2.6983   -0.6464   -4.6789 C.3       1 <0>        -0.1087
     10 C7         -2.3201   -2.1264   -4.7648 C.3       1 <0>        -0.1536
     11 C8         -3.7241   -0.3182   -5.7656 C.3       1 <0>        -0.1500
     12 N2         -2.1167   -0.2757    1.4091 N.4       1 <0>        -0.4967
     13 C9         -2.4409    1.1538    1.5069 C.3       1 <0>        -0.0368
     14 C10        -3.1681    1.4236    2.8298 C.3       1 <0>         0.0950
     15 C11        -3.6211    2.8948    2.8657 C.3       1 <0>        -0.0848
     16 C12        -2.3840    3.7464    3.0147 C.ar      1 <0>        -0.1001
     17 C13        -2.1778    4.8610    2.2324 C.ar      1 <0>        -0.1149
     18 C14        -1.0131    5.5906    2.3805 C.ar      1 <0>        -0.1056
     19 C15        -0.0560    5.2020    3.3011 C.ar      1 <0>        -0.1156
     20 C16        -0.2696    4.0872    4.0963 C.ar      1 <0>        -0.0660
     21 C17        -1.4508    3.3832    3.9714 C.ar      1 <0>        -0.1407
     22 C18         0.7839    3.6206    5.0654 C.3       1 <0>        -0.0874
     23 C19         0.3064    2.4080    5.8633 C.3       1 <0>        -0.1254
     24 C20         0.3602    1.1429    5.0079 C.3       1 <0>        -0.1231
     25 C21         0.1752   -0.0899    5.8959 C.3       1 <0>        -0.0924
     26 C22        -1.2873   -0.4430    5.9855 C.ar      1 <0>        -0.0441
     27 C23        -2.1158   -0.3483    4.8851 C.ar      1 <0>        -0.1359
     28 C24        -3.4747   -0.6011    4.9909 C.ar      1 <0>        -0.0878
     29 C25        -3.9784   -1.0540    6.2226 C.ar      1 <0>        -0.1097
     30 C26        -3.1433   -1.2099    7.3117 C.ar      1 <0>         0.1933
     31 C27        -1.7942   -0.8948    7.1944 C.ar      1 <0>        -0.1145
     32 N3         -3.6477   -1.6836    8.5258 N.pl3     1 <0>        -0.9430
     33 C28        -2.7586   -2.3573    9.4755 C.3       1 <0>         0.0770
     34 S1         -5.2504   -1.4833    8.8912 S.o2      1 <0>         2.5929
     35 O2         -5.3008   -1.4789   10.3113 O.2       1 <0>        -0.9322
     36 O3         -5.6515   -0.3401    8.1486 O.2       1 <0>        -0.9370
     37 C29        -6.0657   -2.9679    8.2417 C.3       1 <0>        -0.6706
     38 C30        -4.4446   -0.3772    3.9121 C.2       1 <0>         0.5463
     39 O4         -5.4728   -1.0513    3.9316 O.2       1 <0>        -0.5089
     40 N4         -4.3448    0.5479    2.9309 N.am      1 <0>        -0.7277
     41 H2          0.4354   -3.2206    1.0301 H         1 <0>         0.0928
     42 H3          0.9462   -1.5434    0.7228 H         1 <0>         0.0796
     43 H4         -0.2110   -1.8963    2.0284 H         1 <0>         0.0524
     44 H5         -0.7079   -2.2444   -0.9627 H         1 <0>         0.1188
     45 H6         -1.8604   -2.6742    0.3239 H         1 <0>         0.0978
     46 H7         -1.3860   -0.8307   -2.5205 H         1 <0>         0.4097
     47 H8         -4.1384   -1.0270   -3.1225 H         1 <0>         0.0819
     48 H9         -3.6516    0.6785   -3.2729 H         1 <0>         0.0812
     49 H10        -1.8077   -0.0348   -4.8232 H         1 <0>         0.0805
     50 H11        -1.8907   -2.3354   -5.7447 H         1 <0>         0.0666
     51 H12        -1.5893   -2.3602   -3.9906 H         1 <0>         0.0500
     52 H13        -3.2107   -2.7381   -4.6205 H         1 <0>         0.0615
     53 H14        -3.9936    0.7362   -5.7044 H         1 <0>         0.0614
     54 H15        -3.2947   -0.5272   -6.7455 H         1 <0>         0.0680
     55 H16        -4.6147   -0.9299   -5.6212 H         1 <0>         0.0619
     56 H17        -2.9574   -0.8203    1.5310 H         1 <0>         0.4315
     57 H18        -1.5214    1.7381    1.4720 H         1 <0>         0.1478
     58 H19        -3.0840    1.4383    0.6742 H         1 <0>         0.1583
     59 H20        -2.4952    1.2704    3.6652 H         1 <0>         0.1322
     60 H21        -4.1341    3.1399    1.9415 H         1 <0>         0.0929
     61 H22        -4.2729    3.0591    3.7219 H         1 <0>         0.1059
     62 H23        -2.9262    5.1596    1.5099 H         1 <0>         0.1262
     63 H24        -0.8491    6.4661    1.7677 H         1 <0>         0.1268
     64 H25         0.8557    5.7725    3.4051 H         1 <0>         0.1259
     65 H26        -1.6650    2.5608    4.6387 H         1 <0>         0.1291
     66 H27         1.6863    3.3553    4.5078 H         1 <0>         0.0817
     67 H28         1.0209    4.4306    5.7596 H         1 <0>         0.0821
     68 H29         0.9709    2.2663    6.7244 H         1 <0>         0.0732
     69 H30        -0.7050    2.5753    6.2314 H         1 <0>         0.0716
     70 H31        -0.4301    1.1636    4.2570 H         1 <0>         0.0562
     71 H32         1.3296    1.0734    4.5069 H         1 <0>         0.0746
     72 H33         0.7264   -0.9285    5.4656 H         1 <0>         0.0873
     73 H34         0.5634    0.1216    6.8929 H         1 <0>         0.0897
     74 H35        -1.6670   -0.1292    3.9230 H         1 <0>         0.1033
     75 H36        -5.0347   -1.2790    6.2961 H         1 <0>         0.1451
     76 H37        -1.1348   -0.9975    8.0405 H         1 <0>         0.1432
     77 H38        -2.3246   -1.6211   10.1520 H         1 <0>         0.0765
     78 H39        -3.3275   -3.0881   10.0502 H         1 <0>         0.0887
     79 H40        -1.9620   -2.8640    8.9306 H         1 <0>         0.0851
     80 H41        -5.6494   -3.8518    8.7248 H         1 <0>         0.1347
     81 H42        -7.1353   -2.9130    8.4440 H         1 <0>         0.1401
     82 H43        -5.9022   -3.0309    7.1659 H         1 <0>         0.1319
     83 H44        -5.0646    0.6306    2.2612 H         1 <0>         0.4249
     84 H45        -1.4509   -0.5195    2.1269 H         1 <0>         0.4236
@<TRIPOS>BOND
     1    1    2 1
     2    1   41 1
     3    1   42 1
     4    1   43 1
     5    2    3 1
     6    2   44 1
     7    2   45 1
     8    3    4 1
     9    3    5 1
    10    3   12 1
    11    5    6 2
    12    5    7 am
    13    7    8 1
    14    7   46 1
    15    8    9 1
    16    8   47 1
    17    8   48 1
    18    9   10 1
    19    9   11 1
    20    9   49 1
    21   10   50 1
    22   10   51 1
    23   10   52 1
    24   11   53 1
    25   11   54 1
    26   11   55 1
    27   12   13 1
    28   12   56 1
    29   12   84 1
    30   13   14 1
    31   13   57 1
    32   13   58 1
    33   14   40 1
    34   14   15 1
    35   14   59 1
    36   15   16 1
    37   15   60 1
    38   15   61 1
    39   16   21 ar
    40   16   17 ar
    41   17   18 ar
    42   17   62 1
    43   18   19 ar
    44   18   63 1
    45   19   20 ar
    46   19   64 1
    47   20   21 ar
    48   20   22 1
    49   21   65 1
    50   22   23 1
    51   22   66 1
    52   22   67 1
    53   23   24 1
    54   23   68 1
    55   23   69 1
    56   24   25 1
    57   24   70 1
    58   24   71 1
    59   25   26 1
    60   25   72 1
    61   25   73 1
    62   26   31 ar
    63   26   27 ar
    64   27   28 ar
    65   27   74 1
    66   28   29 ar
    67   28   38 1
    68   29   30 ar
    69   29   75 1
    70   30   31 ar
    71   30   32 1
    72   31   76 1
    73   32   33 1
    74   32   34 1
    75   33   77 1
    76   33   78 1
    77   33   79 1
    78   34   35 2
    79   34   36 2
    80   34   37 1
    81   37   80 1
    82   37   81 1
    83   37   82 1
    84   38   39 2
    85   38   40 am
    86   40   83 1
@<TRIPOS>MOLECULE
CHEMBL217374__3
   83    85     0     0     0
SMALL
USER_CHARGES

@<TRIPOS>ATOM
      1 C1         -1.7408   -0.1856   -0.2262 C.3       1 <0>        -0.1450
      2 C2         -0.2897    0.2724   -0.0668 C.3       1 <0>        -0.1068
      3 C3          0.5920   -0.4663   -1.0757 C.3       1 <0>         0.0698
      4 H1          1.6213   -0.1207   -0.9803 H         1 <0>         0.0694
      5 C4          0.5323   -1.9476   -0.8051 C.2       1 <0>         0.5136
      6 O1          0.1276   -2.7048   -1.6617 O.2       1 <0>        -0.5259
      7 N1          0.9286   -2.4310    0.3890 N.am      1 <0>        -0.7282
      8 C5          0.8706   -3.8710    0.6521 C.3       1 <0>         0.1233
      9 C6          1.3731   -4.1511    2.0698 C.3       1 <0>        -0.1079
     10 C7          1.1963   -5.6368    2.3894 C.3       1 <0>        -0.1467
     11 C8          2.8545   -3.7810    2.1682 C.3       1 <0>        -0.1498
     12 N2          0.1094   -0.1974   -2.4369 N.3       1 <0>        -0.6687
     13 C9          0.6402    1.0759   -2.9417 C.3       1 <0>         0.0454
     14 C10         0.0157    1.3844   -4.3079 C.3       1 <0>         0.1195
     15 C11         0.6738    2.6491   -4.8896 C.3       1 <0>        -0.0955
     16 C12         0.2064    3.8234   -4.0648 C.ar      1 <0>        -0.0796
     17 C13         1.0871    4.7772   -3.6049 C.ar      1 <0>        -0.1201
     18 C14         0.6180    5.8164   -2.8234 C.ar      1 <0>        -0.1116
     19 C15        -0.7243    5.8962   -2.4971 C.ar      1 <0>        -0.1242
     20 C16        -1.6119    4.9427   -2.9702 C.ar      1 <0>        -0.0696
     21 C17        -1.1453    3.9275   -3.7814 C.ar      1 <0>        -0.1273
     22 C18        -3.0657    4.9853   -2.5814 C.3       1 <0>        -0.0827
     23 C19        -3.8551    3.8669   -3.2604 C.3       1 <0>        -0.1217
     24 C20        -3.5871    2.5257   -2.5789 C.3       1 <0>        -0.1269
     25 C21        -4.6010    1.4871   -3.0648 C.3       1 <0>        -0.0834
     26 C22        -4.0580    0.7653   -4.2714 C.ar      1 <0>        -0.0595
     27 C23        -2.7265    0.4100   -4.3544 C.ar      1 <0>        -0.1119
     28 C24        -2.2166   -0.1856   -5.4978 C.ar      1 <0>        -0.0770
     29 C25        -3.1053   -0.5124   -6.5366 C.ar      1 <0>        -0.1154
     30 C26        -4.4503   -0.2150   -6.4340 C.ar      1 <0>         0.1688
     31 C27        -4.9264    0.4341   -5.3004 C.ar      1 <0>        -0.1208
     32 N3         -5.3310   -0.5650   -7.4610 N.pl3     1 <0>        -0.9421
     33 C28        -6.7525   -0.7667   -7.1699 C.3       1 <0>         0.0820
     34 S1         -4.7678   -0.7517   -9.0070 S.o2      1 <0>         2.5976
     35 O2         -5.8904   -0.4857   -9.8365 O.2       1 <0>        -0.9437
     36 O3         -3.6086    0.0676   -9.0721 O.2       1 <0>        -0.9363
     37 C29        -4.3037   -2.5013   -9.1260 C.3       1 <0>        -0.6728
     38 C30        -0.7918   -0.4546   -5.7257 C.2       1 <0>         0.5647
     39 O4         -0.5086   -1.3710   -6.4950 O.2       1 <0>        -0.5460
     40 N4          0.2432    0.2528   -5.2186 N.am      1 <0>        -0.7122
     41 H2         -2.0774    0.0205   -1.2423 H         1 <0>         0.0725
     42 H3         -1.8075   -1.2559   -0.0315 H         1 <0>         0.0472
     43 H4         -2.3714    0.3525    0.4816 H         1 <0>         0.0507
     44 H5         -0.2257    1.3457   -0.2458 H         1 <0>         0.0739
     45 H6          0.0520    0.0516    0.9444 H         1 <0>         0.0641
     46 H7          1.2522   -1.8254    1.0741 H         1 <0>         0.3997
     47 H8         -0.1588   -4.2166    0.5566 H         1 <0>         0.0684
     48 H9          1.4987   -4.3973   -0.0667 H         1 <0>         0.0679
     49 H10         0.8018   -3.5557    2.7820 H         1 <0>         0.0769
     50 H11         1.7676   -6.2322    1.6771 H         1 <0>         0.0587
     51 H12         1.5544   -5.8364    3.3994 H         1 <0>         0.0616
     52 H13         0.1410   -5.9005    2.3193 H         1 <0>         0.0587
     53 H14         2.9804   -2.7225    1.9405 H         1 <0>         0.0531
     54 H15         3.2125   -3.9805    3.1781 H         1 <0>         0.0596
     55 H16         3.4258   -4.3763    1.4559 H         1 <0>         0.0578
     56 H17         0.3402   -0.9575   -3.0591 H         1 <0>         0.3589
     57 H18         0.3954    1.8747   -2.2416 H         1 <0>         0.0920
     58 H19         1.7228    1.0027   -3.0453 H         1 <0>         0.0392
     59 H20        -1.0425    1.5899   -4.1983 H         1 <0>         0.1195
     60 H21         1.7533    2.5572   -4.8304 H         1 <0>         0.0803
     61 H22         0.3562    2.7885   -5.9214 H         1 <0>         0.0893
     62 H23         2.1371    4.7093   -3.8579 H         1 <0>         0.1211
     63 H24         1.3074    6.5665   -2.4615 H         1 <0>         0.1203
     64 H25        -1.0820    6.7068   -1.8787 H         1 <0>         0.1198
     65 H26        -1.8372    3.2239   -4.2217 H         1 <0>         0.1293
     66 H27        -3.1460    4.8786   -1.4962 H         1 <0>         0.0786
     67 H28        -3.4907    5.9481   -2.8758 H         1 <0>         0.0750
     68 H29        -4.9263    4.0859   -3.1734 H         1 <0>         0.0659
     69 H30        -3.5981    3.8142   -4.3176 H         1 <0>         0.0687
     70 H31        -2.5805    2.1792   -2.8149 H         1 <0>         0.0744
     71 H32        -3.6849    2.6328   -1.4952 H         1 <0>         0.0691
     72 H33        -4.7899    0.7681   -2.2651 H         1 <0>         0.0820
     73 H34        -5.5339    1.9879   -3.3258 H         1 <0>         0.0785
     74 H35        -2.1021    0.5541   -3.4801 H         1 <0>         0.1540
     75 H36        -2.7110   -1.0038   -7.4168 H         1 <0>         0.1374
     76 H37        -5.9707    0.6856   -5.2143 H         1 <0>         0.1332
     77 H38        -7.2842    0.1781   -7.2831 H         1 <0>         0.0713
     78 H39        -7.1646   -1.5007   -7.8623 H         1 <0>         0.0822
     79 H40        -6.8665   -1.1275   -6.1477 H         1 <0>         0.0833
     80 H41        -5.1790   -3.1230   -8.9379 H         1 <0>         0.1313
     81 H42        -3.9190   -2.7081  -10.1246 H         1 <0>         0.1356
     82 H43        -3.5342   -2.7241   -8.3868 H         1 <0>         0.1348
     83 H44         1.1685    0.0001   -5.4496 H         1 <0>         0.4092
@<TRIPOS>BOND
     1    1    2 1
     2    1   41 1
     3    1   42 1
     4    1   43 1
     5    2    3 1
     6    2   44 1
     7    2   45 1
     8    3    4 1
     9    3    5 1
    10    3   12 1
    11    5    6 2
    12    5    7 am
    13    7    8 1
    14    7   46 1
    15    8    9 1
    16    8   47 1
    17    8   48 1
    18    9   10 1
    19    9   11 1
    20    9   49 1
    21   10   50 1
    22   10   51 1
    23   10   52 1
    24   11   53 1
    25   11   54 1
    26   11   55 1
    27   12   13 1
    28   12   56 1
    29   13   14 1
    30   13   57 1
    31   13   58 1
    32   14   40 1
    33   14   15 1
    34   14   59 1
    35   15   16 1
    36   15   60 1
    37   15   61 1
    38   16   21 ar
    39   16   17 ar
    40   17   18 ar
    41   17   62 1
    42   18   19 ar
    43   18   63 1
    44   19   20 ar
    45   19   64 1
    46   20   21 ar
    47   20   22 1
    48   21   65 1
    49   22   23 1
    50   22   66 1
    51   22   67 1
    52   23   24 1
    53   23   68 1
    54   23   69 1
    55   24   25 1
    56   24   70 1
    57   24   71 1
    58   25   26 1
    59   25   72 1
    60   25   73 1
    61   26   31 ar
    62   26   27 ar
    63   27   28 ar
    64   27   74 1
    65   28   29 ar
    66   28   38 1
    67   29   30 ar
    68   29   75 1
    69   30   31 ar
    70   30   32 1
    71   31   76 1
    72   32   33 1
    73   32   34 1
    74   33   77 1
    75   33   78 1
    76   33   79 1
    77   34   35 2
    78   34   36 2
    79   34   37 1
    80   37   80 1
    81   37   81 1
    82   37   82 1
    83   38   39 2
    84   38   40 am
    85   40   83 1
@<TRIPOS>MOLECULE
CHEMBL1209221
   76    80     0     0     0
SMALL
USER_CHARGES

@<TRIPOS>ATOM
      1 C1         -0.5250    2.5623    0.6600 C.3       1 <0>        -0.1841
      2 C2         -0.7041    1.0949    0.3673 C.2       1 <0>         0.5122
      3 O1          0.2386    0.4328   -0.0120 O.2       1 <0>        -0.5317
      4 N1         -1.9118    0.5184    0.5269 N.am      1 <0>        -0.7328
      5 C3         -2.0859   -0.9081    0.2423 C.3       1 <0>         0.1328
      6 H1         -3.1219   -1.1918    0.4276 H         1 <0>         0.1050
      7 C4         -1.7360   -1.1825   -1.2216 C.3       1 <0>        -0.0988
      8 C5         -2.7217   -0.4746   -2.1150 C.ar      1 <0>        -0.0278
      9 C6         -3.8819   -1.1151   -2.5072 C.ar      1 <0>        -0.1647
     10 C7         -4.7883   -0.4657   -3.3284 C.ar      1 <0>         0.1395
     11 C8         -4.5321    0.8256   -3.7561 C.ar      1 <0>        -0.1926
     12 C9         -3.3700    1.4663   -3.3623 C.ar      1 <0>         0.1388
     13 C10        -2.4676    0.8168   -2.5368 C.ar      1 <0>        -0.1581
     14 F1         -3.1188    2.7266   -3.7790 F         1 <0>        -0.1259
     15 F2         -5.9218   -1.0924   -3.7123 F         1 <0>        -0.1258
     16 C11        -1.1634   -1.7253    1.1490 C.3       1 <0>         0.0686
     17 H2         -0.1274   -1.4417    0.9638 H         1 <0>         0.1452
     18 C12        -1.5134   -1.4509    2.6130 C.3       1 <0>        -0.0560
     19 N2         -0.5524   -2.1410    3.4838 N.4       1 <0>        -0.4981
     20 C13        -0.9599   -1.9812    4.8861 C.3       1 <0>         0.1167
     21 C14        -1.0108   -0.4926    5.2359 C.3       1 <0>        -0.1365
     22 C15         0.3735    0.1265    5.0333 C.3       1 <0>        -0.1341
     23 C16         1.3845   -0.5764    5.9414 C.3       1 <0>        -0.1326
     24 C17         1.4354   -2.0650    5.5916 C.3       1 <0>        -0.1353
     25 C18         0.0511   -2.6842    5.7942 C.3       1 <0>        -0.1312
     26 C19        -2.3234   -2.5911    5.0856 C.ar      1 <0>        -0.0897
     27 C20        -2.7487   -3.6169    4.2612 C.ar      1 <0>        -0.1707
     28 C21        -3.9988   -4.1794    4.4412 C.ar      1 <0>        -0.0652
     29 C22        -4.8272   -3.7181    5.4458 C.ar      1 <0>        -0.1447
     30 C23        -4.4031   -2.6884    6.2752 C.ar      1 <0>         0.1990
     31 C24        -3.1447   -2.1290    6.0950 C.ar      1 <0>        -0.1407
     32 N3         -5.2400   -2.2186    7.2935 N.am      1 <0>        -0.5678
     33 C25        -6.6044   -2.7324    7.6049 C.3       1 <0>         0.1170
     34 C26        -7.5588   -1.5742    7.1756 C.3       1 <0>        -0.1414
     35 C27        -7.2580   -0.4473    8.1934 C.3       1 <0>        -0.1198
     36 C28        -6.1471   -1.0593    9.1049 C.3       1 <0>        -0.1233
     37 C29        -6.6224   -2.5570    9.1662 C.3       1 <0>        -0.1337
     38 C30        -4.9432   -1.2234    8.1660 C.2       1 <0>         0.5246
     39 O2         -3.9159   -0.5795    8.1975 O.2       1 <0>        -0.5007
     40 O3         -1.3332   -3.1168    0.8714 O.3       1 <0>        -0.5421
     41 H3          0.5110    2.8460    0.4748 H         1 <0>         0.1003
     42 H4         -1.1822    3.1445    0.0141 H         1 <0>         0.0957
     43 H5         -0.7743    2.7578    1.7029 H         1 <0>         0.0910
     44 H6         -2.6658    1.0480    0.8303 H         1 <0>         0.4117
     45 H7         -0.7301   -0.8175   -1.4294 H         1 <0>         0.1084
     46 H8         -1.7795   -2.2551   -1.4107 H         1 <0>         0.1016
     47 H9         -4.0816   -2.1226   -2.1733 H         1 <0>         0.1430
     48 H10        -5.2383    1.3327   -4.3969 H         1 <0>         0.1522
     49 H11        -1.5630    1.3181   -2.2259 H         1 <0>         0.1363
     50 H12        -1.4699   -0.3783    2.8020 H         1 <0>         0.1406
     51 H13        -2.5192   -1.8160    2.8207 H         1 <0>         0.1416
     52 H14        -0.5307   -3.1222    3.2496 H         1 <0>         0.4276
     53 H15        -1.7311    0.0082    4.5889 H         1 <0>         0.0874
     54 H16        -1.3132   -0.3741    6.2764 H         1 <0>         0.1171
     55 H17         0.6759    0.0080    3.9928 H         1 <0>         0.0561
     56 H18         0.3372    1.1870    5.2825 H         1 <0>         0.0943
     57 H19         2.3707   -0.1353    5.7971 H         1 <0>         0.0826
     58 H20         1.0822   -0.4579    6.9819 H         1 <0>         0.0811
     59 H21         1.7378   -2.1836    4.5511 H         1 <0>         0.0579
     60 H22         2.1557   -2.5659    6.2385 H         1 <0>         0.0957
     61 H23        -0.2512   -2.5656    6.8347 H         1 <0>         0.1134
     62 H24         0.0874   -3.7447    5.5450 H         1 <0>         0.0912
     63 H25        -2.1031   -3.9790    3.4748 H         1 <0>         0.1187
     64 H26        -4.3282   -4.9800    3.7956 H         1 <0>         0.1404
     65 H27        -5.8037   -4.1576    5.5858 H         1 <0>         0.1367
     66 H28        -2.8103   -1.3308    6.7412 H         1 <0>         0.1617
     67 H29        -6.8400   -3.7270    7.2263 H         1 <0>         0.1350
     68 H30        -7.3293   -1.2453    6.1621 H         1 <0>         0.0756
     69 H31        -8.5997   -1.8890    7.2501 H         1 <0>         0.0942
     70 H32        -6.8879    0.4416    7.6825 H         1 <0>         0.0746
     71 H33        -8.1471   -0.2120    8.7784 H         1 <0>         0.0932
     72 H34        -5.9705   -0.5595   10.0573 H         1 <0>         0.1389
     73 H35        -7.6234   -2.6594    9.5852 H         1 <0>         0.1085
     74 H36        -5.9005   -3.2028    9.6662 H         1 <0>         0.0886
     75 H37        -2.2334   -3.4395    1.0149 H         1 <0>         0.3861
     76 H38         0.3657   -1.7436    3.3529 H         1 <0>         0.4277
@<TRIPOS>BOND
     1    1    2 1
     2    1   41 1
     3    1   42 1
     4    1   43 1
     5    2    3 2
     6    2    4 am
     7    4    5 1
     8    4   44 1
     9    5    6 1
    10    5    7 1
    11    5   16 1
    12    7    8 1
    13    7   45 1
    14    7   46 1
    15    8   13 ar
    16    8    9 ar
    17    9   10 ar
    18    9   47 1
    19   10   11 ar
    20   10   15 1
    21   11   12 ar
    22   11   48 1
    23   12   13 ar
    24   12   14 1
    25   13   49 1
    26   16   17 1
    27   16   18 1
    28   16   40 1
    29   18   19 1
    30   18   50 1
    31   18   51 1
    32   19   20 1
    33   19   52 1
    34   19   76 1
    35   20   25 1
    36   20   21 1
    37   20   26 1
    38   21   22 1
    39   21   53 1
    40   21   54 1
    41   22   23 1
    42   22   55 1
    43   22   56 1
    44   23   24 1
    45   23   57 1
    46   23   58 1
    47   24   25 1
    48   24   59 1
    49   24   60 1
    50   25   61 1
    51   25   62 1
    52   26   31 ar
    53   26   27 ar
    54   27   28 ar
    55   27   63 1
    56   28   29 ar
    57   28   64 1
    58   29   30 ar
    59   29   65 1
    60   30   31 ar
    61   30   32 1
    62   31   66 1
    63   32   38 am
    64   32   33 1
    65   33   37 1
    66   33   34 1
    67   33   67 1
    68   34   35 1
    69   34   68 1
    70   34   69 1
    71   35   36 1
    72   35   70 1
    73   35   71 1
    74   36   37 1
    75   36   38 1
    76   36   72 1
    77   37   73 1
    78   37   74 1
    79   38   39 2
    80   40   75 1
@<TRIPOS>MOLECULE
CHEMBL1209221__1
   76    80     0     0     0
SMALL
USER_CHARGES

@<TRIPOS>ATOM
      1 C1         -0.5250    2.5623    0.6600 C.3       1 <0>        -0.1841
      2 C2         -0.7041    1.0949    0.3672 C.2       1 <0>         0.5122
      3 O1          0.2386    0.4328   -0.0120 O.2       1 <0>        -0.5318
      4 N1         -1.9118    0.5184    0.5269 N.am      1 <0>        -0.7328
      5 C3         -2.0859   -0.9081    0.2423 C.3       1 <0>         0.1328
      6 H1         -3.1219   -1.1918    0.4276 H         1 <0>         0.1050
      7 C4         -1.7359   -1.1825   -1.2216 C.3       1 <0>        -0.0988
      8 C5         -2.7217   -0.4746   -2.1150 C.ar      1 <0>        -0.0279
      9 C6         -3.8819   -1.1151   -2.5072 C.ar      1 <0>        -0.1647
     10 C7         -4.7882   -0.4658   -3.3284 C.ar      1 <0>         0.1394
     11 C8         -4.5321    0.8255   -3.7561 C.ar      1 <0>        -0.1925
     12 C9         -3.3700    1.4662   -3.3623 C.ar      1 <0>         0.1387
     13 C10        -2.4676    0.8168   -2.5369 C.ar      1 <0>        -0.1581
     14 F1         -3.1188    2.7266   -3.7790 F         1 <0>        -0.1259
     15 F2         -5.9218   -1.0925   -3.7124 F         1 <0>        -0.1258
     16 C11        -1.1634   -1.7253    1.1490 C.3       1 <0>         0.0685
     17 H2         -0.1274   -1.4417    0.9638 H         1 <0>         0.1452
     18 C12        -1.5134   -1.4509    2.6130 C.3       1 <0>        -0.0559
     19 N2         -0.5524   -2.1410    3.4838 N.4       1 <0>        -0.4982
     20 C13        -0.9599   -1.9812    4.8861 C.3       1 <0>         0.1167
     21 C14        -1.0108   -0.4926    5.2359 C.3       1 <0>        -0.1366
     22 C15         0.3735    0.1265    5.0333 C.3       1 <0>        -0.1341
     23 C16         1.3845   -0.5764    5.9414 C.3       1 <0>        -0.1326
     24 C17         1.4354   -2.0650    5.5916 C.3       1 <0>        -0.1353
     25 C18         0.0511   -2.6842    5.7942 C.3       1 <0>        -0.1311
     26 C19        -2.3234   -2.5911    5.0856 C.ar      1 <0>        -0.0897
     27 C20        -2.7487   -3.6169    4.2612 C.ar      1 <0>        -0.1707
     28 C21        -3.9988   -4.1794    4.4412 C.ar      1 <0>        -0.0652
     29 C22        -4.8272   -3.7181    5.4458 C.ar      1 <0>        -0.1448
     30 C23        -4.4031   -2.6884    6.2752 C.ar      1 <0>         0.1990
     31 C24        -3.1447   -2.1290    6.0950 C.ar      1 <0>        -0.1407
     32 N3         -5.2400   -2.2186    7.2935 N.am      1 <0>        -0.5678
     33 C25        -6.6044   -2.7324    7.6049 C.3       1 <0>         0.1172
     34 C26        -6.4360   -3.4671    8.9719 C.3       1 <0>        -0.1429
     35 C27        -6.1443   -2.3248    9.9750 C.3       1 <0>        -0.1212
     36 C28        -6.1584   -1.0401    9.0868 C.3       1 <0>        -0.1231
     37 C29        -7.3048   -1.4066    8.0746 C.3       1 <0>        -0.1324
     38 C30        -4.9432   -1.2234    8.1660 C.2       1 <0>         0.5246
     39 O2         -3.9083   -0.5924    8.2096 O.2       1 <0>        -0.5008
     40 O3         -1.3332   -3.1168    0.8714 O.3       1 <0>        -0.5422
     41 H3          0.5110    2.8460    0.4747 H         1 <0>         0.1002
     42 H4         -1.1822    3.1445    0.0140 H         1 <0>         0.0957
     43 H5         -0.7743    2.7578    1.7029 H         1 <0>         0.0911
     44 H6         -2.6658    1.0480    0.8302 H         1 <0>         0.4117
     45 H7         -0.7301   -0.8175   -1.4294 H         1 <0>         0.1084
     46 H8         -1.7795   -2.2551   -1.4107 H         1 <0>         0.1016
     47 H9         -4.0816   -2.1226   -2.1733 H         1 <0>         0.1430
     48 H10        -5.2382    1.3326   -4.3969 H         1 <0>         0.1522
     49 H11        -1.5630    1.3181   -2.2259 H         1 <0>         0.1363
     50 H12        -1.4699   -0.3783    2.8020 H         1 <0>         0.1406
     51 H13        -2.5192   -1.8160    2.8207 H         1 <0>         0.1416
     52 H14        -0.5307   -3.1223    3.2496 H         1 <0>         0.4276
     53 H15        -1.7311    0.0082    4.5889 H         1 <0>         0.0875
     54 H16        -1.3132   -0.3740    6.2764 H         1 <0>         0.1171
     55 H17         0.6759    0.0080    3.9928 H         1 <0>         0.0561
     56 H18         0.3372    1.1870    5.2825 H         1 <0>         0.0943
     57 H19         2.3707   -0.1353    5.7971 H         1 <0>         0.0826
     58 H20         1.0822   -0.4579    6.9819 H         1 <0>         0.0811
     59 H21         1.7378   -2.1836    4.5511 H         1 <0>         0.0579
     60 H22         2.1557   -2.5659    6.2386 H         1 <0>         0.0957
     61 H23        -0.2513   -2.5656    6.8347 H         1 <0>         0.1133
     62 H24         0.0874   -3.7447    5.5450 H         1 <0>         0.0911
     63 H25        -2.1031   -3.9790    3.4748 H         1 <0>         0.1186
     64 H26        -4.3282   -4.9800    3.7956 H         1 <0>         0.1404
     65 H27        -5.8037   -4.1576    5.5858 H         1 <0>         0.1367
     66 H28        -2.8103   -1.3308    6.7412 H         1 <0>         0.1617
     67 H29        -7.1010   -3.2869    6.8087 H         1 <0>         0.1350
     68 H30        -7.3547   -3.9878    9.2419 H         1 <0>         0.0945
     69 H31        -5.5984   -4.1634    8.9311 H         1 <0>         0.0766
     70 H32        -6.9241   -2.2738   10.7349 H         1 <0>         0.0933
     71 H33        -5.1663   -2.4607   10.4367 H         1 <0>         0.0753
     72 H34        -6.2498   -0.0886    9.6105 H         1 <0>         0.1390
     73 H35        -7.3985   -0.6775    7.2698 H         1 <0>         0.0878
     74 H36        -8.2564   -1.5923    8.5726 H         1 <0>         0.1084
     75 H37        -2.2334   -3.4395    1.0149 H         1 <0>         0.3862
     76 H38         0.3657   -1.7436    3.3529 H         1 <0>         0.4277
@<TRIPOS>BOND
     1    1    2 1
     2    1   41 1
     3    1   42 1
     4    1   43 1
     5    2    3 2
     6    2    4 am
     7    4    5 1
     8    4   44 1
     9    5    6 1
    10    5    7 1
    11    5   16 1
    12    7    8 1
    13    7   45 1
    14    7   46 1
    15    8   13 ar
    16    8    9 ar
    17    9   10 ar
    18    9   47 1
    19   10   11 ar
    20   10   15 1
    21   11   12 ar
    22   11   48 1
    23   12   13 ar
    24   12   14 1
    25   13   49 1
    26   16   17 1
    27   16   18 1
    28   16   40 1
    29   18   19 1
    30   18   50 1
    31   18   51 1
    32   19   20 1
    33   19   52 1
    34   19   76 1
    35   20   25 1
    36   20   21 1
    37   20   26 1
    38   21   22 1
    39   21   53 1
    40   21   54 1
    41   22   23 1
    42   22   55 1
    43   22   56 1
    44   23   24 1
    45   23   57 1
    46   23   58 1
    47   24   25 1
    48   24   59 1
    49   24   60 1
    50   25   61 1
    51   25   62 1
    52   26   31 ar
    53   26   27 ar
    54   27   28 ar
    55   27   63 1
    56   28   29 ar
    57   28   64 1
    58   29   30 ar
    59   29   65 1
    60   30   31 ar
    61   30   32 1
    62   31   66 1
    63   32   38 am
    64   32   33 1
    65   33   37 1
    66   33   34 1
    67   33   67 1
    68   34   35 1
    69   34   68 1
    70   34   69 1
    71   35   36 1
    72   35   70 1
    73   35   71 1
    74   36   37 1
    75   36   38 1
    76   36   72 1
    77   37   73 1
    78   37   74 1
    79   38   39 2
    80   40   75 1
@<TRIPOS>MOLECULE
CHEMBL578437
   39    42     0     0     0
SMALL
USER_CHARGES

@<TRIPOS>ATOM
      1 C1         -0.0007    1.3675   -0.0094 C.ar      1 <0>        -0.1122
      2 C2          1.1895    2.0702   -0.0209 C.ar      1 <0>        -0.1018
      3 C3          2.3945    1.3953   -0.0525 C.ar      1 <0>        -0.1251
      4 C4          2.4196    0.0050   -0.0643 C.ar      1 <0>         0.1224
      5 C5          1.2208   -0.6992   -0.0245 C.ar      1 <0>         0.1436
      6 C6          0.0133   -0.0148   -0.0128 C.ar      1 <0>        -0.1088
      7 N1          1.2142   -2.0982    0.0495 N.pl3     1 <0>        -0.7239
      8 C7          1.8027   -2.7235    1.1430 C.ar      1 <0>         0.2047
      9 C8          1.0397   -3.5366    1.9689 C.ar      1 <0>        -0.0807
     10 C9          1.6185   -4.1273    3.0898 C.ar      1 <0>        -0.0952
     11 C10         2.9653   -3.8979    3.3827 C.ar      1 <0>        -0.1065
     12 C11         3.7289   -3.1056    2.5567 C.ar      1 <0>        -0.0483
     13 C12         3.1631   -2.5260    1.4162 C.ar      1 <0>        -0.1276
     14 C13         4.0081   -1.7489    0.4988 C.2       1 <0>         0.5710
     15 O1          5.1389   -2.1532    0.3114 O.2       1 <0>        -0.5278
     16 N2          3.6481   -0.6487   -0.1414 N.am      1 <0>        -0.6490
     17 C14         0.8070   -4.9973    3.9704 C.2       1 <0>         0.5631
     18 O2         -0.3645   -5.1963    3.7156 O.2       1 <0>        -0.5037
     19 N3          1.3673   -5.5687    5.0549 N.am      1 <0>        -0.6660
     20 C15         0.5811   -6.3080    5.9380 C.ar      1 <0>         0.1866
     21 C16        -0.4840   -7.0788    5.4740 C.ar      1 <0>        -0.1749
     22 C17        -1.2374   -7.7956    6.3802 C.ar      1 <0>         0.1178
     23 N4         -0.9607   -7.7579    7.6700 N.ar      1 <0>        -0.4949
     24 C18         0.0386   -7.0406    8.1482 C.ar      1 <0>         0.1183
     25 C19         0.8434   -6.3002    7.3073 C.ar      1 <0>        -0.1990
     26 H1         -0.9412    1.8982    0.0067 H         1 <0>         0.1326
     27 H2          1.1774    3.1501   -0.0055 H         1 <0>         0.1332
     28 H3          3.3211    1.9499   -0.0684 H         1 <0>         0.1331
     29 H4         -0.9170   -0.5633   -0.0064 H         1 <0>         0.1340
     30 H5          0.8034   -2.6247   -0.6540 H         1 <0>         0.4155
     31 H6         -0.0019   -3.7110    1.7431 H         1 <0>         0.1493
     32 H7          3.4084   -4.3438    4.2609 H         1 <0>         0.1366
     33 H8          4.7689   -2.9306    2.7898 H         1 <0>         0.1452
     34 H9          4.3114   -0.2540   -0.7288 H         1 <0>         0.4118
     35 H10         2.3174   -5.4657    5.2211 H         1 <0>         0.4155
     36 H11        -0.7161   -7.1138    4.4198 H         1 <0>         0.1499
     37 H12        -2.0646   -8.3951    6.0298 H         1 <0>         0.1608
     38 H13         0.2316   -7.0370    9.2108 H         1 <0>         0.1611
     39 H14         1.6624   -5.7190    7.7047 H         1 <0>         0.1392
@<TRIPOS>BOND
     1    1    6 ar
     2    1    2 ar
     3    1   26 1
     4    2    3 ar
     5    2   27 1
     6    3    4 ar
     7    3   28 1
     8    4   16 1
     9    4    5 ar
    10    5    6 ar
    11    5    7 1
    12    6   29 1
    13    7    8 1
    14    7   30 1
    15    8   13 ar
    16    8    9 ar
    17    9   10 ar
    18    9   31 1
    19   10   11 ar
    20   10   17 1
    21   11   12 ar
    22   11   32 1
    23   12   13 ar
    24   12   33 1
    25   13   14 1
    26   14   15 2
    27   14   16 am
    28   16   34 1
    29   17   18 2
    30   17   19 am
    31   19   20 1
    32   19   35 1
    33   20   25 ar
    34   20   21 ar
    35   21   22 ar
    36   21   36 1
    37   22   23 ar
    38   22   37 1
    39   23   24 ar
    40   24   25 ar
    41   24   38 1
    42   25   39 1
@<TRIPOS>MOLECULE
CHEMBL393733
   80    81     0     0     0
SMALL
USER_CHARGES

@<TRIPOS>ATOM
      1 C1         -0.0187    1.5258    0.0104 C.3       1 <0>        -0.1593
      2 C2          0.0021   -0.0041    0.0020 C.3       1 <0>        -0.1163
      3 C3          0.7421   -0.5109    1.2415 C.3       1 <0>        -0.1139
      4 C4          0.7628   -2.0407    1.2331 C.3       1 <0>        -0.6065
      5 S1          1.6402   -2.6417    2.7027 S.o2      1 <0>         2.4131
      6 O1          3.0006   -2.2420    2.6088 O.2       1 <0>        -0.9321
      7 O2          0.8908   -2.2774    3.8538 O.2       1 <0>        -0.9161
      8 C5          1.5569   -4.4435    2.5103 C.3       1 <0>        -0.6534
      9 C6          2.2638   -5.1155    3.6891 C.3       1 <0>         0.1782
     10 H1          3.2816   -4.7334    3.7682 H         1 <0>         0.1319
     11 C7          2.3024   -6.6057    3.4684 C.2       1 <0>         0.5106
     12 O3          1.4993   -7.3225    4.0271 O.2       1 <0>        -0.4667
     13 N1          3.2295   -7.1420    2.6503 N.am      1 <0>        -0.7287
     14 C8          3.2671   -8.5907    2.4357 C.3       1 <0>         0.1273
     15 H2          2.9891   -9.1019    3.3575 H         1 <0>         0.1120
     16 C9          2.2827   -8.9677    1.3267 C.3       1 <0>        -0.1039
     17 C10         0.8770   -8.6681    1.7796 C.ar      1 <0>        -0.0237
     18 C11         0.1458   -9.6329    2.4464 C.ar      1 <0>        -0.1602
     19 C12        -1.1461   -9.3588    2.8626 C.ar      1 <0>         0.1408
     20 C13        -1.7051   -8.1178    2.6109 C.ar      1 <0>        -0.1787
     21 C14        -0.9718   -7.1521    1.9434 C.ar      1 <0>         0.1815
     22 C15         0.3218   -7.4267    1.5327 C.ar      1 <0>        -0.1587
     23 F1         -1.5161   -5.9404    1.6971 F         1 <0>        -0.1291
     24 F2         -1.8609  -10.3025    3.5136 F         1 <0>        -0.1330
     25 C16         4.6808   -9.0093    2.0268 C.3       1 <0>         0.0761
     26 H3          5.3932   -8.6621    2.7752 H         1 <0>         0.1358
     27 C17         4.7515  -10.5342    1.9240 C.3       1 <0>        -0.0487
     28 N2          6.1355  -10.9427    1.6491 N.4       1 <0>        -0.5036
     29 C18         6.2034  -12.4068    1.5504 C.3       1 <0>         0.0467
     30 C19         7.6232  -12.8260    1.2683 C.ar      1 <0>        -0.1653
     31 C20         8.0630  -12.9433   -0.0372 C.ar      1 <0>        -0.0979
     32 C21         9.3651  -13.3277   -0.2959 C.ar      1 <0>        -0.1094
     33 C22        10.2281  -13.5945    0.7509 C.ar      1 <0>        -0.0815
     34 C23         9.7887  -13.4763    2.0560 C.ar      1 <0>        -0.0704
     35 C24         8.4874  -13.0876    2.3148 C.ar      1 <0>        -0.0930
     36 C25        10.7292  -13.7674    3.1969 C.3       1 <0>        -0.0953
     37 C26        11.4592  -12.4835    3.5965 C.3       1 <0>        -0.1488
     38 O4          5.0010   -8.4311    0.7599 O.3       1 <0>        -0.5477
     39 N3          1.5353   -4.8237    4.9262 N.am      1 <0>        -0.7083
     40 C27         0.2494   -5.2057    5.0570 C.2       1 <0>         0.6628
     41 O5         -0.3056   -5.7920    4.1489 O.2       1 <0>        -0.5408
     42 O6         -0.4202   -4.9376    6.1939 O.3       1 <0>        -0.3589
     43 C28        -1.7799   -5.3714    6.2637 C.3       1 <0>         0.0573
     44 H4          1.0039    1.9031    0.0027 H         1 <0>         0.0579
     45 H5         -0.5459    1.8868   -0.8726 H         1 <0>         0.0606
     46 H6         -0.5289    1.8773    0.9072 H         1 <0>         0.0584
     47 H7         -1.0205   -0.3814    0.0098 H         1 <0>         0.0674
     48 H8          0.5123   -0.3556   -0.8948 H         1 <0>         0.0665
     49 H9          1.7647   -0.1336    1.2338 H         1 <0>         0.0816
     50 H10         0.2319   -0.1594    2.1383 H         1 <0>         0.0826
     51 H11        -0.2598   -2.4180    1.2409 H         1 <0>         0.1358
     52 H12         1.2730   -2.3923    0.3363 H         1 <0>         0.1332
     53 H13         0.5137   -4.7584    2.4849 H         1 <0>         0.1660
     54 H14         2.0465   -4.7326    1.5803 H         1 <0>         0.1447
     55 H15         3.8719   -6.5688    2.2035 H         1 <0>         0.4084
     56 H16         2.5067   -8.3896    0.4302 H         1 <0>         0.0895
     57 H17         2.3743  -10.0311    1.1057 H         1 <0>         0.0869
     58 H18         0.5822  -10.6012    2.6426 H         1 <0>         0.1302
     59 H19        -2.7128   -7.9033    2.9348 H         1 <0>         0.1422
     60 H20         0.8958   -6.6718    1.0158 H         1 <0>         0.1271
     61 H21         4.4217  -10.9774    2.8636 H         1 <0>         0.1483
     62 H22         4.1048  -10.8742    1.1151 H         1 <0>         0.1422
     63 H23         6.4408  -10.5325    0.7793 H         1 <0>         0.4323
     64 H24         5.8736  -12.8501    2.4900 H         1 <0>         0.1386
     65 H25         5.5567  -12.7469    0.7415 H         1 <0>         0.1387
     66 H26         7.3889  -12.7350   -0.8549 H         1 <0>         0.1308
     67 H27         9.7084  -13.4201   -1.3157 H         1 <0>         0.1366
     68 H28        11.2454  -13.8955    0.5488 H         1 <0>         0.1351
     69 H29         8.1452  -12.9916    3.3346 H         1 <0>         0.1304
     70 H30        10.1619  -14.1429    4.0486 H         1 <0>         0.0779
     71 H31        11.4566  -14.5172    2.8859 H         1 <0>         0.0813
     72 H32        12.0265  -12.1081    2.7448 H         1 <0>         0.0585
     73 H33        10.7318  -11.7337    3.9075 H         1 <0>         0.0534
     74 H34        12.1395  -12.6942    4.4217 H         1 <0>         0.0670
     75 H35         4.4067   -8.6967    0.0448 H         1 <0>         0.3914
     76 H36         1.9783   -4.3557    5.6511 H         1 <0>         0.4204
     77 H37        -2.3538   -4.8977    5.4671 H         1 <0>         0.0618
     78 H38        -1.8222   -6.4544    6.1473 H         1 <0>         0.0597
     79 H39        -2.2010   -5.0931    7.2297 H         1 <0>         0.1038
     80 H40         6.7341  -10.6280    2.3978 H         1 <0>         0.4287
@<TRIPOS>BOND
     1    1    2 1
     2    1   44 1
     3    1   45 1
     4    1   46 1
     5    2    3 1
     6    2   47 1
     7    2   48 1
     8    3    4 1
     9    3   49 1
    10    3   50 1
    11    4    5 1
    12    4   51 1
    13    4   52 1
    14    5    6 2
    15    5    7 2
    16    5    8 1
    17    8    9 1
    18    8   53 1
    19    8   54 1
    20    9   10 1
    21    9   11 1
    22    9   39 1
    23   11   12 2
    24   11   13 am
    25   13   14 1
    26   13   55 1
    27   14   15 1
    28   14   16 1
    29   14   25 1
    30   16   17 1
    31   16   56 1
    32   16   57 1
    33   17   22 ar
    34   17   18 ar
    35   18   19 ar
    36   18   58 1
    37   19   20 ar
    38   19   24 1
    39   20   21 ar
    40   20   59 1
    41   21   22 ar
    42   21   23 1
    43   22   60 1
    44   25   26 1
    45   25   27 1
    46   25   38 1
    47   27   28 1
    48   27   61 1
    49   27   62 1
    50   28   29 1
    51   28   63 1
    52   28   80 1
    53   29   30 1
    54   29   64 1
    55   29   65 1
    56   30   35 ar
    57   30   31 ar
    58   31   32 ar
    59   31   66 1
    60   32   33 ar
    61   32   67 1
    62   33   34 ar
    63   33   68 1
    64   34   35 ar
    65   34   36 1
    66   35   69 1
    67   36   37 1
    68   36   70 1
    69   36   71 1
    70   37   72 1
    71   37   73 1
    72   37   74 1
    73   38   75 1
    74   39   40 am
    75   39   76 1
    76   40   41 2
    77   40   42 1
    78   42   43 1
    79   43   77 1
    80   43   78 1
    81   43   79 1
@<TRIPOS>MOLECULE
CHEMBL404839
   76    80     0     0     0
SMALL
USER_CHARGES

@<TRIPOS>ATOM
      1 C1         -0.0167    1.3781    0.0096 C.ar      1 <0>        -0.1026
      2 C2          1.1709    2.0855    0.0021 C.ar      1 <0>        -0.1213
      3 C3          2.3773    1.4107   -0.0130 C.ar      1 <0>        -0.0990
      4 C4          2.3960    0.0285   -0.0201 C.ar      1 <0>        -0.1092
      5 C5          1.2084   -0.6789   -0.0117 C.ar      1 <0>        -0.0952
      6 C6          0.0021   -0.0041    0.0020 C.ar      1 <0>        -0.1195
      7 C7          3.7112   -0.7071   -0.0376 C.3       1 <0>         0.1019
      8 O1          4.1410   -0.9464    1.3041 O.3       1 <0>        -0.3586
      9 C8          5.3853   -1.6423    1.4004 C.3       1 <0>         0.0683
     10 H1          5.5221   -2.2929    0.5366 H         1 <0>         0.1092
     11 C9          5.4392   -2.4669    2.7070 C.3       1 <0>        -0.1282
     12 C10         6.9057   -2.2833    3.1723 C.3       1 <0>        -0.0085
     13 H2          7.5676   -2.9623    2.6348 H         1 <0>         0.1550
     14 N1          7.2010   -0.8719    2.8163 N.4       1 <0>        -0.5102
     15 C11         6.5508   -0.6413    1.5055 C.3       1 <0>        -0.0340
     16 C12         7.0241   -2.4993    4.6823 C.3       1 <0>         0.0944
     17 H3          6.3960   -1.7766    5.2031 H         1 <0>         0.1337
     18 C13         8.4807   -2.3119    5.1116 C.3       1 <0>         0.1079
     19 H4          8.8332   -1.3341    4.7834 H         1 <0>         0.0972
     20 C14         9.3439   -3.4044    4.4775 C.3       1 <0>        -0.1095
     21 C15        10.7938   -3.1493    4.7995 C.ar      1 <0>        -0.0181
     22 C16        11.5613   -2.3683    3.9563 C.ar      1 <0>        -0.1589
     23 C17        12.8938   -2.1335    4.2510 C.ar      1 <0>         0.1462
     24 C18        13.4569   -2.6810    5.3908 C.ar      1 <0>        -0.1865
     25 C19        12.6871   -3.4627    6.2348 C.ar      1 <0>         0.1486
     26 C20        11.3535   -3.6918    5.9408 C.ar      1 <0>        -0.1605
     27 F1         13.2354   -3.9977    7.3477 F         1 <0>        -0.1235
     28 F2         13.6441   -1.3707    3.4261 F         1 <0>        -0.1282
     29 N2          8.5750   -2.4005    6.5709 N.am      1 <0>        -0.7223
     30 C21         9.5897   -1.7945    7.2186 C.2       1 <0>         0.5322
     31 O2         10.4247   -1.1758    6.5934 O.2       1 <0>        -0.5089
     32 C22         9.6867   -1.8856    8.7197 C.3       1 <0>        -0.1256
     33 H5          8.7965   -1.4701    9.1921 H         1 <0>         0.1247
     34 C23         9.9225   -3.3455    9.1714 C.3       1 <0>        -0.1474
     35 C24        10.8652   -3.2221   10.3481 C.2       1 <0>         0.5198
     36 O3         11.0805   -4.0966   11.1604 O.2       1 <0>        -0.4978
     37 N3         11.4300   -2.0024   10.3620 N.am      1 <0>        -0.6136
     38 C25        10.9637   -1.1854    9.2347 C.3       1 <0>         0.1189
     39 C26        12.3874   -1.5463   11.3728 C.3       1 <0>         0.1784
     40 C27        13.7875   -1.8766   10.9237 C.ar      1 <0>         0.1005
     41 C28        14.5366   -0.9206   10.2637 C.ar      1 <0>        -0.1597
     42 C29        15.8235   -1.2346    9.8548 C.ar      1 <0>        -0.0766
     43 C30        16.3110   -2.5041   10.1263 C.ar      1 <0>        -0.1664
     44 C31        15.5037   -3.4075   10.7907 C.ar      1 <0>         0.1029
     45 N4         14.2857   -3.0723   11.1697 N.ar      1 <0>        -0.4584
     46 O4          6.5979   -3.8236    5.0090 O.3       1 <0>        -0.5200
     47 H6         -0.9591    1.9053    0.0259 H         1 <0>         0.1285
     48 H7          1.1563    3.1654    0.0076 H         1 <0>         0.1277
     49 H8          3.3051    1.9634   -0.0196 H         1 <0>         0.1206
     50 H9          1.2231   -1.7588   -0.0176 H         1 <0>         0.1241
     51 H10        -0.9258   -0.5567    0.0082 H         1 <0>         0.1288
     52 H11         3.5884   -1.6586   -0.5549 H         1 <0>         0.0709
     53 H12         4.4573   -0.1052   -0.5563 H         1 <0>         0.0654
     54 H13         4.7468   -2.0640    3.4462 H         1 <0>         0.1164
     55 H14         5.2259   -3.5173    2.5093 H         1 <0>         0.1283
     56 H15         6.8155   -0.2499    3.5110 H         1 <0>         0.4341
     57 H16         7.2640   -0.8159    0.6999 H         1 <0>         0.1429
     58 H17         6.1701    0.3787    1.4534 H         1 <0>         0.1456
     59 H18         9.0492   -4.3761    4.8739 H         1 <0>         0.0986
     60 H19         9.2048   -3.3957    3.3964 H         1 <0>         0.0881
     61 H20        11.1218   -1.9412    3.0670 H         1 <0>         0.1320
     62 H21        14.4962   -2.4987    5.6212 H         1 <0>         0.1479
     63 H22        10.7515   -4.2980    6.6015 H         1 <0>         0.1348
     64 H23         7.9071   -2.8953    7.0709 H         1 <0>         0.4150
     65 H24         8.9840   -3.8053    9.4811 H         1 <0>         0.1138
     66 H25        10.3851   -3.9226    8.3707 H         1 <0>         0.1026
     67 H26        11.7207   -1.1574    8.4509 H         1 <0>         0.0865
     68 H27        10.7305   -0.1753    9.5712 H         1 <0>         0.0881
     69 H28        12.2923   -0.4683   11.5029 H         1 <0>         0.0984
     70 H29        12.1820   -2.0461   12.3194 H         1 <0>         0.1044
     71 H30        14.1244    0.0584   10.0687 H         1 <0>         0.1321
     72 H31        16.4317   -0.5078    9.3369 H         1 <0>         0.1350
     73 H32        17.3089   -2.7832    9.8221 H         1 <0>         0.1365
     74 H33        15.8760   -4.3982   11.0059 H         1 <0>         0.1569
     75 H34         7.1137   -4.5199    4.5798 H         1 <0>         0.3909
     76 H35         8.1975   -0.7339    2.7385 H         1 <0>         0.4334
@<TRIPOS>BOND
     1    1    6 ar
     2    1    2 ar
     3    1   47 1
     4    2    3 ar
     5    2   48 1
     6    3    4 ar
     7    3   49 1
     8    4    5 ar
     9    4    7 1
    10    5    6 ar
    11    5   50 1
    12    6   51 1
    13    7    8 1
    14    7   52 1
    15    7   53 1
    16    8    9 1
    17    9   10 1
    18    9   15 1
    19    9   11 1
    20   11   12 1
    21   11   54 1
    22   11   55 1
    23   12   13 1
    24   12   14 1
    25   12   16 1
    26   14   15 1
    27   14   56 1
    28   14   76 1
    29   15   57 1
    30   15   58 1
    31   16   17 1
    32   16   18 1
    33   16   46 1
    34   18   19 1
    35   18   20 1
    36   18   29 1
    37   20   21 1
    38   20   59 1
    39   20   60 1
    40   21   26 ar
    41   21   22 ar
    42   22   23 ar
    43   22   61 1
    44   23   24 ar
    45   23   28 1
    46   24   25 ar
    47   24   62 1
    48   25   26 ar
    49   25   27 1
    50   26   63 1
    51   29   30 am
    52   29   64 1
    53   30   31 2
    54   30   32 1
    55   32   33 1
    56   32   38 1
    57   32   34 1
    58   34   35 1
    59   34   65 1
    60   34   66 1
    61   35   36 2
    62   35   37 am
    63   37   38 1
    64   37   39 1
    65   38   67 1
    66   38   68 1
    67   39   40 1
    68   39   69 1
    69   39   70 1
    70   40   45 ar
    71   40   41 ar
    72   41   42 ar
    73   41   71 1
    74   42   43 ar
    75   42   72 1
    76   43   44 ar
    77   43   73 1
    78   44   45 ar
    79   44   74 1
    80   46   75 1
@<TRIPOS>MOLECULE
CHEMBL556087
   67    71     0     0     0
SMALL
USER_CHARGES

@<TRIPOS>ATOM
      1 C1         -0.0187    1.5258    0.0104 C.3       1 <0>        -0.1479
      2 C2          0.0021   -0.0041    0.0020 C.3       1 <0>        -0.0536
      3 C3         -1.4117   -0.5257    0.0127 C.2       1 <0>        -0.1386
      4 C4         -2.1223   -0.8918    1.0970 C.2       1 <0>         0.0708
      5 N1         -3.3628   -1.3210    0.7190 N.pl3     1 <0>        -0.4923
      6 C5         -3.5123   -1.1280   -0.6334 C.ar      1 <0>         0.0821
      7 C6         -2.2752   -0.7245   -1.1528 C.ar      1 <0>        -0.0681
      8 C7         -2.1243   -0.6399   -2.5357 C.ar      1 <0>         0.0212
      9 C8         -3.2160   -0.9149   -3.3561 C.ar      1 <0>        -0.1671
     10 C9         -4.4692   -1.2301   -2.8096 C.ar      1 <0>        -0.0541
     11 C10        -4.6263   -1.2927   -1.4400 C.ar      1 <0>         0.0777
     12 O1         -5.8856   -1.3238   -0.9155 O.3       1 <0>        -0.6588
     13 S1         -6.1089   -0.2686    0.1538 S.o2      1 <0>         2.5955
     14 O2         -5.2591    0.8032   -0.2314 O.2       1 <0>        -0.9379
     15 O3         -7.5183   -0.0888    0.1771 O.2       1 <0>        -0.9148
     16 C11        -5.5555   -0.9446    1.7459 C.3       1 <0>        -0.6741
     17 C12        -4.4054   -1.9245    1.5529 C.3       1 <0>         0.1231
     18 C13        -3.0518   -0.8738   -4.8230 C.2       1 <0>         0.5737
     19 O4         -1.9700   -0.6013   -5.3062 O.2       1 <0>        -0.5345
     20 N2         -4.1013   -1.1382   -5.6262 N.am      1 <0>        -0.7284
     21 C14        -3.9385   -1.0973   -7.0816 C.3       1 <0>         0.1251
     22 H1         -2.9432   -1.4545   -7.3460 H         1 <0>         0.1148
     23 C15        -4.9923   -1.9915   -7.7379 C.3       1 <0>        -0.0811
     24 C16        -4.7460   -3.4265   -7.3494 C.ar      1 <0>        -0.0954
     25 C17        -3.9185   -4.2196   -8.1221 C.ar      1 <0>        -0.1134
     26 C18        -3.6926   -5.5359   -7.7657 C.ar      1 <0>        -0.1138
     27 C19        -4.2938   -6.0591   -6.6362 C.ar      1 <0>        -0.1141
     28 C20        -5.1207   -5.2658   -5.8630 C.ar      1 <0>        -0.1145
     29 C21        -5.3432   -3.9482   -6.2170 C.ar      1 <0>        -0.1141
     30 C22        -4.1117    0.3409   -7.5739 C.3       1 <0>         0.0715
     31 H2         -3.9905    0.3713   -8.6567 H         1 <0>         0.1370
     32 C23        -3.0579    1.2351   -6.9175 C.3       1 <0>        -0.0397
     33 N3         -3.2241    2.6159   -7.3903 N.4       1 <0>        -0.4753
     34 C24        -2.2123    3.4745   -6.7601 C.3       1 <0>        -0.0829
     35 C25        -2.7076    4.5871   -5.8340 C.3       1 <0>        -0.1547
     36 C26        -2.1431    4.9342   -7.2131 C.3       1 <0>        -0.1536
     37 O5         -5.4165    0.8092   -7.2273 O.3       1 <0>        -0.5486
     38 H3          1.0039    1.9031    0.0027 H         1 <0>         0.0608
     39 H4         -0.5459    1.8868   -0.8726 H         1 <0>         0.0535
     40 H5         -0.5289    1.8773    0.9072 H         1 <0>         0.0566
     41 H6          0.5123   -0.3556   -0.8948 H         1 <0>         0.0760
     42 H7          0.5293   -0.3651    0.8851 H         1 <0>         0.0780
     43 H8         -1.7640   -0.8519    2.1151 H         1 <0>         0.1834
     44 H9         -1.1729   -0.3642   -2.9660 H         1 <0>         0.1510
     45 H10        -5.3079   -1.4294   -3.4601 H         1 <0>         0.1453
     46 H11        -5.2253   -0.1270    2.3866 H         1 <0>         0.1541
     47 H12        -6.3881   -1.4598    2.2249 H         1 <0>         0.1642
     48 H13        -4.7775   -2.8276    1.0690 H         1 <0>         0.1096
     49 H14        -3.9855   -2.1846    2.5246 H         1 <0>         0.1288
     50 H15        -4.9645   -1.3555   -5.2407 H         1 <0>         0.4074
     51 H16        -5.9847   -1.6895   -7.4030 H         1 <0>         0.0904
     52 H17        -4.9289   -1.8925   -8.8216 H         1 <0>         0.0964
     53 H18        -3.4488   -3.8108   -9.0045 H         1 <0>         0.1218
     54 H19        -3.0466   -6.1557   -8.3698 H         1 <0>         0.1251
     55 H20        -4.1179   -7.0878   -6.3582 H         1 <0>         0.1246
     56 H21        -5.5907   -5.6747   -4.9807 H         1 <0>         0.1239
     57 H22        -5.9862   -3.3274   -5.6108 H         1 <0>         0.1161
     58 H23        -3.1790    1.2047   -5.8347 H         1 <0>         0.1335
     59 H24        -2.0626    0.8779   -7.1820 H         1 <0>         0.1525
     60 H25        -3.1120    2.6441   -8.3926 H         1 <0>         0.4271
     61 H26        -1.2747    2.9831   -6.5003 H         1 <0>         0.1778
     62 H27        -3.7842    4.6821   -5.6924 H         1 <0>         0.1204
     63 H28        -2.0958    4.8279   -4.9646 H         1 <0>         0.1335
     64 H29        -1.1600    5.4033   -7.2509 H         1 <0>         0.1339
     65 H30        -2.8483    5.2576   -7.9787 H         1 <0>         0.1208
     66 H31        -5.5946    0.8096   -6.2768 H         1 <0>         0.3865
     67 H32        -4.1455    2.9466   -7.1455 H         1 <0>         0.4264
@<TRIPOS>BOND
     1    1    2 1
     2    1   38 1
     3    1   39 1
     4    1   40 1
     5    2    3 1
     6    2   41 1
     7    2   42 1
     8    3    7 1
     9    3    4 2
    10    4    5 1
    11    4   43 1
    12    5   17 1
    13    5    6 1
    14    6   11 ar
    15    6    7 ar
    16    7    8 ar
    17    8    9 ar
    18    8   44 1
    19    9   10 ar
    20    9   18 1
    21   10   11 ar
    22   10   45 1
    23   11   12 1
    24   12   13 1
    25   13   14 2
    26   13   15 2
    27   13   16 1
    28   16   17 1
    29   16   46 1
    30   16   47 1
    31   17   48 1
    32   17   49 1
    33   18   19 2
    34   18   20 am
    35   20   21 1
    36   20   50 1
    37   21   22 1
    38   21   23 1
    39   21   30 1
    40   23   24 1
    41   23   51 1
    42   23   52 1
    43   24   29 ar
    44   24   25 ar
    45   25   26 ar
    46   25   53 1
    47   26   27 ar
    48   26   54 1
    49   27   28 ar
    50   27   55 1
    51   28   29 ar
    52   28   56 1
    53   29   57 1
    54   30   31 1
    55   30   32 1
    56   30   37 1
    57   32   33 1
    58   32   58 1
    59   32   59 1
    60   33   34 1
    61   33   60 1
    62   33   67 1
    63   34   36 1
    64   34   35 1
    65   34   61 1
    66   35   36 1
    67   35   62 1
    68   35   63 1
    69   36   64 1
    70   36   65 1
    71   37   66 1
@<TRIPOS>MOLECULE
CHEMBL461602
   82    82     0     0     0
SMALL
NO_CHARGES

@<TRIPOS>ATOM
      1 C1         -0.0187    1.5258    0.0104 C.3       1 <0>        -0.1532
      2 C2          0.0021   -0.0041    0.0020 C.3       1 <0>        -0.1222
      3 C3          0.7182   -0.4975   -1.2568 C.3       1 <0>        -0.1320
      4 C4          0.7390   -2.0273   -1.2652 C.3       1 <0>         0.1171
      5 N1          1.4247   -2.4998   -2.4705 N.am      1 <0>        -0.7333
      6 C5          1.5637   -3.8219   -2.6922 C.2       1 <0>         0.5142
      7 O1          1.1212   -4.6205   -1.8939 O.2       1 <0>        -0.5349
      8 C6          2.2691   -4.3079   -3.9321 C.3       1 <0>        -0.1080
      9 H1          3.2917   -3.9306   -3.9399 H         1 <0>         0.1037
     10 C7          1.5291   -3.8011   -5.1717 C.3       1 <0>        -0.1449
     11 C8          2.2899   -5.8377   -3.9405 C.3       1 <0>        -0.1236
     12 C9          3.1128   -6.3301   -5.1327 C.3       1 <0>         0.0960
     13 H2          2.7177   -5.8957   -6.0511 H         1 <0>         0.1022
     14 C10         3.0308   -7.8557   -5.2138 C.3       1 <0>         0.1091
     15 H3          3.4255   -8.2921   -4.2962 H         1 <0>         0.1023
     16 C11         3.8472   -8.3504   -6.4094 C.3       1 <0>        -0.1235
     17 C12         4.6574   -9.5818   -5.9994 C.3       1 <0>        -0.0864
     18 H4          4.0874  -10.1684   -5.2789 H         1 <0>         0.0686
     19 C13         4.9487  -10.4353   -7.2354 C.3       1 <0>        -0.1145
     20 C14         5.2623  -11.8690   -6.8029 C.3       1 <0>        -0.1204
     21 C15         4.3745  -12.8421   -7.5813 C.3       1 <0>        -0.1215
     22 C16         3.8040  -13.8897   -6.6232 C.3       1 <0>        -0.1207
     23 C17         2.3146  -14.0875   -6.9120 C.3       1 <0>        -0.1207
     24 C18         1.5747  -14.3715   -5.6033 C.3       1 <0>        -0.1180
     25 C19         0.1489  -13.8241   -5.6944 C.3       1 <0>        -0.1179
     26 C20        -0.1481  -12.9674   -4.4621 C.3       1 <0>        -0.1442
     27 C21        -0.0879  -11.5091   -4.8376 C.2       1 <0>         0.5137
     28 O2          0.3603  -11.1625   -5.9099 O.2       1 <0>        -0.5187
     29 N2         -0.5516  -10.5838   -3.9396 N.am      1 <0>        -0.6156
     30 C22        -0.4500   -9.1765   -4.3999 C.3       1 <0>         0.1253
     31 H5         -0.7728   -9.1066   -5.4387 H         1 <0>         0.0990
     32 C23         0.9882   -8.7405   -4.2859 C.2       1 <0>         0.5139
     33 O3          1.5711   -8.8095   -3.2246 O.2       1 <0>        -0.5235
     34 N3          1.6225   -8.2675   -5.3925 N.am      1 <0>        -0.7172
     35 C24        -1.3334   -8.2843   -3.5256 C.3       1 <0>        -0.1517
     36 C25        -1.1029  -10.9531   -2.6335 C.3       1 <0>         0.0882
     37 C26         5.9764   -9.1364   -5.3648 C.3       1 <0>        -0.1444
     38 O4          4.4758   -5.9344   -4.9666 O.3       1 <0>        -0.5523
     39 H6          1.0039    1.9031    0.0027 H         1 <0>         0.0547
     40 H7         -0.5459    1.8868   -0.8726 H         1 <0>         0.0545
     41 H8         -0.5289    1.8773    0.9072 H         1 <0>         0.0568
     42 H9          0.5293   -0.3651    0.8851 H         1 <0>         0.0653
     43 H10        -1.0205   -0.3814    0.0098 H         1 <0>         0.0651
     44 H11         0.1910   -0.1364   -2.1398 H         1 <0>         0.0689
     45 H12         1.7408   -0.1202   -1.2645 H         1 <0>         0.0691
     46 H13         1.2661   -2.3884   -0.3821 H         1 <0>         0.0667
     47 H14        -0.2836   -2.4046   -1.2575 H         1 <0>         0.0663
     48 H15         1.7786   -1.8611   -3.1090 H         1 <0>         0.4000
     49 H16         0.5065   -4.1783   -5.1639 H         1 <0>         0.0588
     50 H17         1.5143   -2.7112   -5.1657 H         1 <0>         0.0594
     51 H18         2.0393   -4.1526   -6.0684 H         1 <0>         0.0709
     52 H19         2.7379   -6.2001   -3.0153 H         1 <0>         0.0765
     53 H20         1.2703   -6.2145   -4.0224 H         1 <0>         0.0750
     54 H21         3.1739   -8.6136   -7.2252 H         1 <0>         0.0691
     55 H22         4.5249   -7.5624   -6.7377 H         1 <0>         0.0833
     56 H23         4.0773  -10.4357   -7.8902 H         1 <0>         0.0641
     57 H24         5.8042  -10.0215   -7.7693 H         1 <0>         0.0591
     58 H25         6.3099  -12.0894   -7.0079 H         1 <0>         0.0567
     59 H26         5.0705  -11.9766   -5.7353 H         1 <0>         0.0632
     60 H27         3.5568  -12.2935   -8.0487 H         1 <0>         0.0669
     61 H28         4.9663  -13.3376   -8.3509 H         1 <0>         0.0563
     62 H29         4.3297  -14.8343   -6.7627 H         1 <0>         0.0559
     63 H30         3.9329  -13.5505   -5.5954 H         1 <0>         0.0618
     64 H31         1.9101  -13.1845   -7.3694 H         1 <0>         0.0717
     65 H32         2.1850  -14.9289   -7.5927 H         1 <0>         0.0563
     66 H33         1.5405  -15.4473   -5.4313 H         1 <0>         0.0589
     67 H34         2.0974  -13.8881   -4.7780 H         1 <0>         0.0611
     68 H35         0.0503  -13.2148   -6.5928 H         1 <0>         0.0856
     69 H36        -0.5567  -14.6537   -5.7388 H         1 <0>         0.0653
     70 H37        -1.1431  -13.2049   -4.0857 H         1 <0>         0.0904
     71 H38         0.5918  -13.1743   -3.6888 H         1 <0>         0.0976
     72 H39         1.1742   -8.2049   -6.2504 H         1 <0>         0.4076
     73 H40        -1.0035   -8.3506   -2.4888 H         1 <0>         0.0753
     74 H41        -1.2567   -7.2517   -3.8660 H         1 <0>         0.0735
     75 H42        -2.3694   -8.6151   -3.5991 H         1 <0>         0.0733
     76 H43        -1.0750  -12.0369   -2.5207 H         1 <0>         0.0809
     77 H44        -0.5098  -10.4903   -1.8448 H         1 <0>         0.0687
     78 H45        -2.1341  -10.6070   -2.5633 H         1 <0>         0.0646
     79 H46         5.7689   -8.5283   -4.4843 H         1 <0>         0.0506
     80 H47         6.5536  -10.0136   -5.0727 H         1 <0>         0.0521
     81 H48         6.5464   -8.5498   -6.0853 H         1 <0>         0.0563
     82 H49         4.8927   -6.2854   -4.1678 H         1 <0>         0.3754
@<TRIPOS>BOND
     1    1    2 1
     2    1   39 1
     3    1   40 1
     4    1   41 1
     5    2    3 1
     6    2   42 1
     7    2   43 1
     8    3    4 1
     9    3   44 1
    10    3   45 1
    11    4    5 1
    12    4   46 1
    13    4   47 1
    14    5    6 am
    15    5   48 1
    16    6    7 2
    17    6    8 1
    18    8    9 1
    19    8   10 1
    20    8   11 1
    21   10   49 1
    22   10   50 1
    23   10   51 1
    24   11   12 1
    25   11   52 1
    26   11   53 1
    27   12   13 1
    28   12   14 1
    29   12   38 1
    30   14   15 1
    31   14   34 1
    32   14   16 1
    33   16   17 1
    34   16   54 1
    35   16   55 1
    36   17   18 1
    37   17   19 1
    38   17   37 1
    39   19   20 1
    40   19   56 1
    41   19   57 1
    42   20   21 1
    43   20   58 1
    44   20   59 1
    45   21   22 1
    46   21   60 1
    47   21   61 1
    48   22   23 1
    49   22   62 1
    50   22   63 1
    51   23   24 1
    52   23   64 1
    53   23   65 1
    54   24   25 1
    55   24   66 1
    56   24   67 1
    57   25   26 1
    58   25   68 1
    59   25   69 1
    60   26   27 1
    61   26   70 1
    62   26   71 1
    63   27   28 2
    64   27   29 am
    65   29   30 1
    66   29   36 1
    67   30   31 1
    68   30   32 1
    69   30   35 1
    70   32   33 2
    71   32   34 am
    72   34   72 1
    73   35   73 1
    74   35   74 1
    75   35   75 1
    76   36   76 1
    77   36   77 1
    78   36   78 1
    79   37   79 1
    80   37   80 1
    81   37   81 1
    82   38   82 1
@<TRIPOS>MOLECULE
CHEMBL560894
   74    76     0     0     0
SMALL
USER_CHARGES

@<TRIPOS>ATOM
      1 C1         -0.0187    1.5257    0.0295 C.3       1 <0>        -0.1690
      2 C2          0.0021   -0.0042    0.0264 C.3       1 <0>         0.1198
      3 N1         -1.3723   -0.5112    0.0124 N.pl3     1 <0>        -0.7456
      4 C3         -1.6089   -1.8880    0.0073 C.ar      1 <0>         0.2347
      5 C4         -0.5432   -2.7604   -0.1067 C.ar      1 <0>        -0.1806
      6 C5         -0.7637   -4.1377   -0.1163 C.ar      1 <0>        -0.0751
      7 C6         -2.0697   -4.6166   -0.0228 C.ar      1 <0>        -0.1204
      8 C7         -3.1327   -3.7316    0.0852 C.ar      1 <0>         0.2135
      9 C8         -2.9221   -2.3619    0.1236 C.ar      1 <0>        -0.1467
     10 C9         -3.9917   -1.3144    0.3090 C.3       1 <0>        -0.1100
     11 C10        -5.1469   -1.8046    1.1817 C.3       1 <0>        -0.1022
     12 C11        -6.3086   -2.2875    0.2682 C.3       1 <0>        -0.6298
     13 S1         -5.6023   -3.5645   -0.8142 S.o2      1 <0>         2.6014
     14 O1         -4.9035   -2.9688   -1.8987 O.2       1 <0>        -0.9362
     15 O2         -6.5412   -4.6086   -1.0326 O.2       1 <0>        -0.9444
     16 N2         -4.4290   -4.2253    0.1405 N.pl3     1 <0>        -0.9457
     17 C12        -4.7610   -5.3233    1.0517 C.3       1 <0>         0.0714
     18 C13         0.3728   -5.0776   -0.2247 C.2       1 <0>         0.5676
     19 O3          0.1715   -6.2763   -0.2323 O.2       1 <0>        -0.5015
     20 N3          1.6317   -4.6050   -0.3151 N.am      1 <0>        -0.7246
     21 C14         2.7577   -5.5361   -0.4225 C.3       1 <0>         0.1273
     22 H1          2.5490   -6.4283    0.1679 H         1 <0>         0.1105
     23 C15         2.9564   -5.9292   -1.8878 C.3       1 <0>        -0.1019
     24 C16         1.7542   -6.7002   -2.3685 C.ar      1 <0>        -0.0809
     25 C17         1.7185   -8.0761   -2.2392 C.ar      1 <0>        -0.1073
     26 C18         0.6157   -8.7834   -2.6802 C.ar      1 <0>        -0.1114
     27 C19        -0.4516   -8.1148   -3.2501 C.ar      1 <0>        -0.1097
     28 C20        -0.4163   -6.7389   -3.3786 C.ar      1 <0>        -0.1077
     29 C21         0.6847   -6.0312   -2.9337 C.ar      1 <0>        -0.1044
     30 C22         4.0278   -4.8632    0.1017 C.3       1 <0>         0.0753
     31 H2          3.8562   -4.5038    1.1164 H         1 <0>         0.1351
     32 C23         5.1761   -5.8743    0.1061 C.3       1 <0>        -0.0480
     33 N4          6.3631   -5.2645    0.7201 N.4       1 <0>        -0.5003
     34 C24         7.4656   -6.2352    0.7242 C.3       1 <0>        -0.0126
     35 C25         8.7020   -5.6001    1.3637 C.3       1 <0>        -0.2034
     36 C26         9.8503   -6.6112    1.3681 C.3       1 <0>         0.4661
     37 F1         10.1461   -6.9866    0.0532 F         1 <0>        -0.1744
     38 F2         10.9808   -6.0305    1.9528 F         1 <0>        -0.1648
     39 F3          9.4740   -7.7411    2.1022 F         1 <0>        -0.1743
     40 O4          4.3665   -3.7614   -0.7429 O.3       1 <0>        -0.5498
     41 H3          1.0039    1.9029    0.0399 H         1 <0>         0.0750
     42 H4         -0.5290    1.8839   -0.8646 H         1 <0>         0.0646
     43 H5         -0.5457    1.8802    0.9153 H         1 <0>         0.0634
     44 H6          0.5291   -0.3586   -0.8594 H         1 <0>         0.0598
     45 H7          0.5124   -0.3624    0.9205 H         1 <0>         0.0592
     46 H8         -2.1181    0.1091    0.0067 H         1 <0>         0.4036
     47 H9          0.4624   -2.3751   -0.1890 H         1 <0>         0.1238
     48 H10        -2.2546   -5.6806   -0.0347 H         1 <0>         0.1395
     49 H11        -3.5468   -0.4349    0.7745 H         1 <0>         0.0914
     50 H12        -4.3831   -1.0333   -0.6687 H         1 <0>         0.0950
     51 H13        -4.8066   -2.6310    1.8057 H         1 <0>         0.0887
     52 H14        -5.4964   -0.9891    1.8148 H         1 <0>         0.0937
     53 H15        -7.1103   -2.7106    0.8734 H         1 <0>         0.1402
     54 H16        -6.6861   -1.4572   -0.3286 H         1 <0>         0.1394
     55 H17        -5.0708   -4.9158    2.0141 H         1 <0>         0.0665
     56 H18        -5.5738   -5.9135    0.6285 H         1 <0>         0.0939
     57 H19        -3.8855   -5.9576    1.1906 H         1 <0>         0.0855
     58 H20         1.7923   -3.6484   -0.3091 H         1 <0>         0.4058
     59 H21         3.0768   -5.0300   -2.4920 H         1 <0>         0.0820
     60 H22         3.8472   -6.5506   -1.9796 H         1 <0>         0.0785
     61 H23         2.5524   -8.5984   -1.7940 H         1 <0>         0.1112
     62 H24         0.5882   -9.8583   -2.5799 H         1 <0>         0.1194
     63 H25        -1.3129   -8.6674   -3.5953 H         1 <0>         0.1204
     64 H26        -1.2500   -6.2166   -3.8241 H         1 <0>         0.1192
     65 H27         0.7107   -4.9558   -3.0306 H         1 <0>         0.1109
     66 H28         4.8829   -6.7546    0.6780 H         1 <0>         0.1517
     67 H29         5.4065   -6.1667   -0.9183 H         1 <0>         0.1453
     68 H30         6.6346   -4.4495    0.1906 H         1 <0>         0.4360
     69 H31         7.1724   -7.1156    1.2962 H         1 <0>         0.1488
     70 H32         7.6961   -6.5277   -0.3002 H         1 <0>         0.1483
     71 H33         8.9952   -4.7198    0.7918 H         1 <0>         0.1369
     72 H34         8.4715   -5.3077    2.3882 H         1 <0>         0.1368
     73 H35         4.5331   -4.0078   -1.6630 H         1 <0>         0.3930
     74 H36         6.1498   -4.9937    1.6684 H         1 <0>         0.4327
@<TRIPOS>BOND
     1    1    2 1
     2    1   41 1
     3    1   42 1
     4    1   43 1
     5    2    3 1
     6    2   44 1
     7    2   45 1
     8    3    4 1
     9    3   46 1
    10    4    9 ar
    11    4    5 ar
    12    5    6 ar
    13    5   47 1
    14    6    7 ar
    15    6   18 1
    16    7    8 ar
    17    7   48 1
    18    8   16 1
    19    8    9 ar
    20    9   10 1
    21   10   11 1
    22   10   49 1
    23   10   50 1
    24   11   12 1
    25   11   51 1
    26   11   52 1
    27   12   13 1
    28   12   53 1
    29   12   54 1
    30   13   14 2
    31   13   15 2
    32   13   16 1
    33   16   17 1
    34   17   55 1
    35   17   56 1
    36   17   57 1
    37   18   19 2
    38   18   20 am
    39   20   21 1
    40   20   58 1
    41   21   22 1
    42   21   23 1
    43   21   30 1
    44   23   24 1
    45   23   59 1
    46   23   60 1
    47   24   29 ar
    48   24   25 ar
    49   25   26 ar
    50   25   61 1
    51   26   27 ar
    52   26   62 1
    53   27   28 ar
    54   27   63 1
    55   28   29 ar
    56   28   64 1
    57   29   65 1
    58   30   31 1
    59   30   32 1
    60   30   40 1
    61   32   33 1
    62   32   66 1
    63   32   67 1
    64   33   34 1
    65   33   68 1
    66   33   74 1
    67   34   35 1
    68   34   69 1
    69   34   70 1
    70   35   36 1
    71   35   71 1
    72   35   72 1
    73   36   37 1
    74   36   38 1
    75   36   39 1
    76   40   73 1
@<TRIPOS>MOLECULE
CHEMBL560894__1
   73    75     0     0     0
SMALL
USER_CHARGES

@<TRIPOS>ATOM
      1 C1         -0.0022    1.5261    0.0009 C.3       1 <0>        -0.1665
      2 C2          0.0232   -0.0037   -0.0102 C.3       1 <0>         0.1168
      3 N1          0.7106   -0.4894    1.1889 N.pl3     1 <0>        -0.7462
      4 C3          0.8590   -1.8622    1.4012 C.ar      1 <0>         0.2335
      5 C4          0.2496   -2.7532    0.5382 C.ar      1 <0>        -0.1776
      6 C5          0.3861   -4.1268    0.7389 C.ar      1 <0>        -0.0663
      7 C6          1.1317   -4.5834    1.8248 C.ar      1 <0>        -0.1228
      8 C7          1.7342   -3.6799    2.6883 C.ar      1 <0>         0.2093
      9 C8          1.6278   -2.3131    2.4820 C.ar      1 <0>        -0.1540
     10 C9          2.2965   -1.2456    3.3119 C.3       1 <0>        -0.1066
     11 C10         3.6417   -1.7002    3.8777 C.3       1 <0>        -0.1020
     12 C11         3.4434   -2.1832    5.3423 C.3       1 <0>        -0.6305
     13 S1          2.1854   -3.4924    5.2762 S.o2      1 <0>         2.6028
     14 O1          0.8823   -2.9295    5.2111 O.2       1 <0>        -0.9356
     15 O2          2.4916   -4.5259    6.2021 O.2       1 <0>        -0.9484
     16 N2          2.4423   -4.1521    3.7850 N.pl3     1 <0>        -0.9441
     17 C12         3.4247   -5.2264    3.6208 C.3       1 <0>         0.0720
     18 C13        -0.2521   -5.0862   -0.1879 C.2       1 <0>         0.5611
     19 O3         -0.1281   -6.2816   -0.0057 O.2       1 <0>        -0.5097
     20 N3         -0.9714   -4.6353   -1.2347 N.am      1 <0>        -0.7182
     21 C14        -1.6037   -5.5857   -2.1529 C.3       1 <0>         0.1242
     22 H1         -0.9658   -6.4626   -2.2642 H         1 <0>         0.1014
     23 C15        -2.9618   -6.0111   -1.5911 C.3       1 <0>        -0.1013
     24 C16        -2.7579   -6.7728   -0.3068 C.ar      1 <0>        -0.0665
     25 C17        -2.5936   -8.1450   -0.3357 C.ar      1 <0>        -0.1074
     26 C18        -2.4066   -8.8437    0.8423 C.ar      1 <0>        -0.1130
     27 C19        -2.3834   -8.1701    2.0492 C.ar      1 <0>        -0.1188
     28 C20        -2.5468   -6.7978    2.0780 C.ar      1 <0>        -0.1107
     29 C21        -2.7295   -6.0986    0.8996 C.ar      1 <0>        -0.1069
     30 C22        -1.8013   -4.9223   -3.5173 C.3       1 <0>         0.1024
     31 H2         -0.8461   -4.5401   -3.8773 H         1 <0>         0.1192
     32 C23        -2.3460   -5.9509   -4.5104 C.3       1 <0>         0.0283
     33 N4         -2.4229   -5.3475   -5.8476 N.3       1 <0>        -0.6806
     34 C24        -2.9430   -6.3083   -6.8296 C.3       1 <0>         0.0549
     35 C25        -3.0084   -5.6451   -8.2068 C.3       1 <0>        -0.1662
     36 C26        -3.5500   -6.6458   -9.2296 C.3       1 <0>         0.4544
     37 F1         -4.8321   -7.0551   -8.8477 F         1 <0>        -0.1845
     38 F2         -3.6098   -6.0393  -10.4889 F         1 <0>        -0.1823
     39 F3         -2.7033   -7.7580   -9.2873 F         1 <0>        -0.1823
     40 O4         -2.7295   -3.8430   -3.3922 O.3       1 <0>        -0.5557
     41 H3          1.0193    1.9063    0.0133 H         1 <0>         0.0614
     42 H4         -0.5136    1.8875   -0.8912 H         1 <0>         0.0752
     43 H5         -0.5303    1.8743    0.8886 H         1 <0>         0.0623
     44 H6         -0.9982   -0.3839   -0.0226 H         1 <0>         0.0619
     45 H7          0.5513   -0.3518   -0.8979 H         1 <0>         0.0622
     46 H8          1.0628    0.1422    1.8354 H         1 <0>         0.4010
     47 H9         -0.3338   -2.3853   -0.2929 H         1 <0>         0.1269
     48 H10         1.2405   -5.6444    1.9946 H         1 <0>         0.1389
     49 H11         2.4552   -0.3641    2.6908 H         1 <0>         0.0900
     50 H12         1.6386   -0.9781    4.1387 H         1 <0>         0.0922
     51 H13         4.0327   -2.5192    3.2740 H         1 <0>         0.0892
     52 H14         4.3441   -0.8669    3.8610 H         1 <0>         0.0914
     53 H15         4.3787   -2.5815    5.7354 H         1 <0>         0.1380
     54 H16         3.0945   -1.3592    5.9647 H         1 <0>         0.1375
     55 H17         4.4025   -4.7950    3.4066 H         1 <0>         0.0648
     56 H18         3.4792   -5.8123    4.5384 H         1 <0>         0.0917
     57 H19         3.1233   -5.8713    2.7954 H         1 <0>         0.0869
     58 H20        -1.0704   -3.6813   -1.3802 H         1 <0>         0.4030
     59 H21        -3.5677   -5.1262   -1.3964 H         1 <0>         0.0764
     60 H22        -3.4708   -6.6481   -2.3144 H         1 <0>         0.0826
     61 H23        -2.6117   -8.6713   -1.2787 H         1 <0>         0.1129
     62 H24        -2.2789   -9.9159    0.8197 H         1 <0>         0.1159
     63 H25        -2.2380   -8.7161    2.9696 H         1 <0>         0.1156
     64 H26        -2.5290   -6.2715    3.0210 H         1 <0>         0.1150
     65 H27        -2.8535   -5.0259    0.9218 H         1 <0>         0.1095
     66 H28        -1.6822   -6.8149   -4.5393 H         1 <0>         0.0887
     67 H29        -3.3408   -6.2673   -4.1968 H         1 <0>         0.0436
     68 H30        -2.9811   -4.5070   -5.8334 H         1 <0>         0.3512
     69 H31        -2.2833   -7.1748   -6.8746 H         1 <0>         0.0877
     70 H32        -3.9419   -6.6272   -6.5321 H         1 <0>         0.0461
     71 H33        -3.6681   -4.7785   -8.1618 H         1 <0>         0.1097
     72 H34        -2.0095   -5.3261   -8.5043 H         1 <0>         0.1202
     73 H35        -3.6033   -4.1104   -3.0757 H         1 <0>         0.3746
@<TRIPOS>BOND
     1    1    2 1
     2    1   41 1
     3    1   42 1
     4    1   43 1
     5    2    3 1
     6    2   44 1
     7    2   45 1
     8    3    4 1
     9    3   46 1
    10    4    9 ar
    11    4    5 ar
    12    5    6 ar
    13    5   47 1
    14    6    7 ar
    15    6   18 1
    16    7    8 ar
    17    7   48 1
    18    8   16 1
    19    8    9 ar
    20    9   10 1
    21   10   11 1
    22   10   49 1
    23   10   50 1
    24   11   12 1
    25   11   51 1
    26   11   52 1
    27   12   13 1
    28   12   53 1
    29   12   54 1
    30   13   14 2
    31   13   15 2
    32   13   16 1
    33   16   17 1
    34   17   55 1
    35   17   56 1
    36   17   57 1
    37   18   19 2
    38   18   20 am
    39   20   21 1
    40   20   58 1
    41   21   22 1
    42   21   23 1
    43   21   30 1
    44   23   24 1
    45   23   59 1
    46   23   60 1
    47   24   29 ar
    48   24   25 ar
    49   25   26 ar
    50   25   61 1
    51   26   27 ar
    52   26   62 1
    53   27   28 ar
    54   27   63 1
    55   28   29 ar
    56   28   64 1
    57   29   65 1
    58   30   31 1
    59   30   32 1
    60   30   40 1
    61   32   33 1
    62   32   66 1
    63   32   67 1
    64   33   34 1
    65   33   68 1
    66   34   35 1
    67   34   69 1
    68   34   70 1
    69   35   36 1
    70   35   71 1
    71   35   72 1
    72   36   37 1
    73   36   38 1
    74   36   39 1
    75   40   73 1
@<TRIPOS>MOLECULE
CHEMBL272765
   69    74     0     0     0
SMALL
USER_CHARGES

@<TRIPOS>ATOM
      1 C1         -0.0423    1.5452   -0.5607 C.ar      1 <0>        -0.1249
      2 C2         -0.0887    0.2452   -0.0894 C.ar      1 <0>        -0.1107
      3 C3          1.0763   -0.4770    0.0670 C.ar      1 <0>        -0.1309
      4 C4          2.3035    0.1065   -0.2514 C.ar      1 <0>        -0.0104
      5 C5          2.3433    1.4182   -0.7264 C.ar      1 <0>        -0.1052
      6 C6          1.1709    2.1295   -0.8782 C.ar      1 <0>        -0.1137
      7 C7          3.5561   -0.6616   -0.0858 C.2       1 <0>         0.0565
      8 C8          4.8102   -0.1386    0.0137 C.2       1 <0>        -0.1699
      9 C9          5.7016   -1.2140    0.1596 C.2       1 <0>        -0.1906
     10 C10         4.9761   -2.3532    0.1454 C.2       1 <0>         0.0459
     11 N1          3.6608   -2.0262    0.0008 N.pl3     1 <0>        -0.4175
     12 C11         2.5455   -2.9744   -0.0560 C.3       1 <0>         0.0737
     13 C12         1.9613   -3.1460    1.3225 C.2       1 <0>         0.5004
     14 O1          2.4840   -2.6029    2.2760 O.2       1 <0>        -0.5209
     15 N2          0.8726   -3.8926    1.4960 N.2       1 <0>        -0.7049
     16 C13         0.8750   -4.8711    2.3924 C.2       1 <0>         0.7053
     17 N3         -0.2108   -5.6844    2.5159 N.pl3     1 <0>        -0.8202
     18 N4          1.9634   -5.0622    3.1892 N.pl3     1 <0>        -0.7399
     19 C14         2.0054   -6.1998    4.1114 C.3       1 <0>         0.1077
     20 C15         3.2644   -6.1092    4.9760 C.3       1 <0>        -0.0450
     21 C16         3.3709   -7.3402    5.8388 C.2       1 <0>        -0.1486
     22 C17         3.9894   -8.5170    5.5742 C.2       1 <0>        -0.1470
     23 C18         3.9588   -9.5191    6.5258 C.2       1 <0>        -0.1587
     24 C19         3.3112   -9.2954    7.6954 C.2       1 <0>        -0.1675
     25 S1          2.7220   -7.6242    7.4775 S.3       1 <0>         0.0413
     26 C20         5.5274   -3.7498    0.2736 C.3       1 <0>         0.0208
     27 C21         4.7916   -4.4877    1.3939 C.3       1 <0>        -0.1049
     28 C22         5.3513   -5.9057    1.5240 C.3       1 <0>        -0.0841
     29 C23         6.8439   -5.8367    1.8532 C.3       1 <0>        -0.1084
     30 C24         7.5796   -5.0988    0.7329 C.3       1 <0>        -0.0855
     31 C25         7.0200   -3.6808    0.6028 C.3       1 <0>        -0.0948
     32 C26         7.3825   -5.8480   -0.5865 C.3       1 <0>        -0.1084
     33 C27         5.8900   -5.9170   -0.9157 C.3       1 <0>        -0.0850
     34 C28         5.1542   -6.6549    0.2046 C.3       1 <0>        -0.1081
     35 C29         5.3303   -4.4990   -1.0458 C.3       1 <0>        -0.1044
     36 H1         -0.9576    2.1048   -0.6856 H         1 <0>         0.1222
     37 H2         -1.0390   -0.2050    0.1569 H         1 <0>         0.1223
     38 H3          1.0388   -1.4916    0.4353 H         1 <0>         0.1235
     39 H4          3.2897    1.8756   -0.9742 H         1 <0>         0.1269
     40 H5          1.2004    3.1447   -1.2457 H         1 <0>         0.1252
     41 H6          5.0706    0.9091   -0.0144 H         1 <0>         0.1367
     42 H7          6.7742   -1.1429    0.2637 H         1 <0>         0.1369
     43 H8          1.7787   -2.5935   -0.7307 H         1 <0>         0.1185
     44 H9          2.9049   -3.9366   -0.4207 H         1 <0>         0.1196
     45 H10        -0.9857   -5.5483    1.9486 H         1 <0>         0.4264
     46 H11        -0.2091   -6.3996    3.1712 H         1 <0>         0.4118
     47 H12         2.7105   -4.4451    3.1460 H         1 <0>         0.4256
     48 H13         1.1231   -6.1816    4.7512 H         1 <0>         0.0760
     49 H14         2.0219   -7.1289    3.5417 H         1 <0>         0.0760
     50 H15         4.1421   -6.0387    4.3336 H         1 <0>         0.0957
     51 H16         3.2065   -5.2248    5.6105 H         1 <0>         0.0905
     52 H17         4.4982   -8.6695    4.6339 H         1 <0>         0.1333
     53 H18         4.4433  -10.4663    6.3401 H         1 <0>         0.1353
     54 H19         3.1872   -9.9553    8.5413 H         1 <0>         0.1869
     55 H20         4.9321   -3.9540    2.3338 H         1 <0>         0.0670
     56 H21         3.7283   -4.5369    1.1593 H         1 <0>         0.0514
     57 H22         4.8271   -6.4314    2.3221 H         1 <0>         0.0657
     58 H23         6.9843   -5.3030    2.7932 H         1 <0>         0.0626
     59 H24         7.2426   -6.8469    1.9459 H         1 <0>         0.0632
     60 H25         8.6430   -5.0496    0.9674 H         1 <0>         0.0739
     61 H26         7.5441   -3.1551   -0.1953 H         1 <0>         0.0702
     62 H27         7.1604   -3.1471    1.5428 H         1 <0>         0.0686
     63 H28         7.9067   -5.3223   -1.3846 H         1 <0>         0.0642
     64 H29         7.7812   -6.8582   -0.4938 H         1 <0>         0.0629
     65 H30         5.7495   -6.4507   -1.8557 H         1 <0>         0.0721
     66 H31         5.5529   -7.6651    0.2973 H         1 <0>         0.0644
     67 H32         4.0909   -6.7041   -0.0300 H         1 <0>         0.0568
     68 H33         4.2669   -4.5482   -1.2804 H         1 <0>         0.0558
     69 H34         5.8544   -3.9733   -1.8439 H         1 <0>         0.0705
@<TRIPOS>BOND
     1    1    6 ar
     2    1    2 ar
     3    1   36 1
     4    2    3 ar
     5    2   37 1
     6    3    4 ar
     7    3   38 1
     8    4    5 ar
     9    4    7 1
    10    5    6 ar
    11    5   39 1
    12    6   40 1
    13    7   11 1
    14    7    8 2
    15    8    9 1
    16    8   41 1
    17    9   10 2
    18    9   42 1
    19   10   11 1
    20   10   26 1
    21   11   12 1
    22   12   13 1
    23   12   43 1
    24   12   44 1
    25   13   14 2
    26   13   15 1
    27   15   16 2
    28   16   17 1
    29   16   18 1
    30   17   45 1
    31   17   46 1
    32   18   19 1
    33   18   47 1
    34   19   20 1
    35   19   48 1
    36   19   49 1
    37   20   21 1
    38   20   50 1
    39   20   51 1
    40   21   25 1
    41   21   22 2
    42   22   23 1
    43   22   52 1
    44   23   24 2
    45   23   53 1
    46   24   25 1
    47   24   54 1
    48   26   31 1
    49   26   35 1
    50   26   27 1
    51   27   28 1
    52   27   55 1
    53   27   56 1
    54   28   34 1
    55   28   29 1
    56   28   57 1
    57   29   30 1
    58   29   58 1
    59   29   59 1
    60   30   31 1
    61   30   32 1
    62   30   60 1
    63   31   61 1
    64   31   62 1
    65   32   33 1
    66   32   63 1
    67   32   64 1
    68   33   34 1
    69   33   35 1
    70   33   65 1
    71   34   66 1
    72   34   67 1
    73   35   68 1
    74   35   69 1
@<TRIPOS>MOLECULE
CHEMBL272765__1
   69    74     0     0     0
SMALL
USER_CHARGES

@<TRIPOS>ATOM
      1 C1          0.1849    1.6163   -0.0737 C.ar      1 <0>        -0.1247
      2 C2          0.1722    0.2813    0.2897 C.ar      1 <0>        -0.1112
      3 C3          1.3425   -0.4492    0.2849 C.ar      1 <0>        -0.1298
      4 C4          2.5410    0.1612   -0.0875 C.ar      1 <0>        -0.0101
      5 C5          2.5470    1.5081   -0.4530 C.ar      1 <0>        -0.1051
      6 C6          1.3697    2.2274   -0.4440 C.ar      1 <0>        -0.1138
      7 C7          3.7991   -0.6156   -0.0945 C.2       1 <0>         0.0581
      8 C8          5.0597   -0.1007   -0.0531 C.2       1 <0>        -0.1705
      9 C9          5.9547   -1.1827   -0.0769 C.2       1 <0>        -0.1899
     10 C10         5.2248   -2.3178   -0.1316 C.2       1 <0>         0.0438
     11 N1          3.9037   -1.9823   -0.1376 N.pl3     1 <0>        -0.4178
     12 C11         2.7827   -2.9243   -0.1856 C.3       1 <0>         0.0712
     13 C12         2.3178   -3.2237    1.2162 C.2       1 <0>         0.5030
     14 O1          2.8698   -2.7006    2.1643 O.2       1 <0>        -0.5154
     15 N2          1.3024   -4.0614    1.4162 N.2       1 <0>        -0.7068
     16 C13         1.4724   -5.1432    2.1658 C.2       1 <0>         0.7064
     17 N3          2.6524   -5.3421    2.8170 N.pl3     1 <0>        -0.8639
     18 N4          0.4671   -6.0548    2.2840 N.pl3     1 <0>        -0.7015
     19 C14         0.6548   -7.2491    3.1115 C.3       1 <0>         0.1144
     20 C15        -0.6158   -8.1006    3.0738 C.3       1 <0>        -0.0425
     21 C16        -0.4227   -9.3291    3.9250 C.2       1 <0>        -0.1525
     22 C17        -0.6920   -9.5063    5.2416 C.2       1 <0>        -0.1466
     23 C18        -0.4318  -10.7346    5.8196 C.2       1 <0>        -0.1596
     24 C19         0.0850  -11.7257    5.0528 C.2       1 <0>        -0.1663
     25 S1          0.2127  -10.9311    3.4592 S.3       1 <0>         0.0412
     26 C20         5.7778   -3.7191   -0.1733 C.3       1 <0>         0.0205
     27 C21         5.1346   -4.5543    0.9356 C.3       1 <0>        -0.1070
     28 C22         5.6960   -5.9770    0.8932 C.3       1 <0>        -0.0835
     29 C23         7.2112   -5.9338    1.1009 C.3       1 <0>        -0.1089
     30 C24         7.8543   -5.0985   -0.0080 C.3       1 <0>        -0.0858
     31 C25         7.2930   -3.6759    0.0343 C.3       1 <0>        -0.0949
     32 C26         7.5436   -5.7292   -1.3669 C.3       1 <0>        -0.1084
     33 C27         6.0284   -5.7724   -1.5746 C.3       1 <0>        -0.0852
     34 C28         5.3852   -6.6076   -0.4657 C.3       1 <0>        -0.1083
     35 C29         5.4670   -4.3497   -1.5322 C.3       1 <0>        -0.1042
     36 H1         -0.7347    2.1826   -0.0726 H         1 <0>         0.1223
     37 H2         -0.7559   -0.1897    0.5780 H         1 <0>         0.1222
     38 H3          1.3312   -1.4911    0.5691 H         1 <0>         0.1220
     39 H4          3.4712    1.9864   -0.7418 H         1 <0>         0.1270
     40 H5          1.3730    3.2698   -0.7265 H         1 <0>         0.1253
     41 H6          5.3223    0.9460   -0.0100 H         1 <0>         0.1369
     42 H7          7.0326   -1.1186   -0.0560 H         1 <0>         0.1372
     43 H8          1.9631   -2.4850   -0.7542 H         1 <0>         0.1188
     44 H9          3.1046   -3.8479   -0.6667 H         1 <0>         0.1192
     45 H10         3.3392   -4.6575    2.7962 H         1 <0>         0.4240
     46 H11         2.8057   -6.1684    3.3014 H         1 <0>         0.4012
     47 H12        -0.3731   -5.9132    1.8204 H         1 <0>         0.4261
     48 H13         1.4929   -7.8299    2.7264 H         1 <0>         0.0749
     49 H14         0.8615   -6.9503    4.1392 H         1 <0>         0.0770
     50 H15        -1.4540   -7.5198    3.4589 H         1 <0>         0.0991
     51 H16        -0.8226   -8.3994    2.0461 H         1 <0>         0.0924
     52 H17        -1.1034   -8.6997    5.8302 H         1 <0>         0.1343
     53 H18        -0.6369  -10.9021    6.8666 H         1 <0>         0.1357
     54 H19         0.3475  -12.7353    5.3323 H         1 <0>         0.1871
     55 H20         5.3560   -4.1050    1.9037 H         1 <0>         0.0664
     56 H21         4.0551   -4.5851    0.7876 H         1 <0>         0.0527
     57 H22         5.2378   -6.5720    1.6832 H         1 <0>         0.0663
     58 H23         7.4325   -5.4845    2.0690 H         1 <0>         0.0627
     59 H24         7.6111   -6.9473    1.0707 H         1 <0>         0.0636
     60 H25         8.9338   -5.0678    0.1400 H         1 <0>         0.0741
     61 H26         7.7512   -3.0808   -0.7557 H         1 <0>         0.0704
     62 H27         7.5143   -3.2266    1.0025 H         1 <0>         0.0686
     63 H28         8.0018   -5.1342   -2.1569 H         1 <0>         0.0643
     64 H29         7.9435   -6.7427   -1.3971 H         1 <0>         0.0631
     65 H30         5.8070   -6.2217   -2.5427 H         1 <0>         0.0723
     66 H31         5.7851   -7.6212   -0.4958 H         1 <0>         0.0648
     67 H32         4.3057   -6.6384   -0.6136 H         1 <0>         0.0570
     68 H33         4.3875   -4.3805   -1.6802 H         1 <0>         0.0559
     69 H34         5.9252   -3.7547   -2.3222 H         1 <0>         0.0706
@<TRIPOS>BOND
     1    1    6 ar
     2    1    2 ar
     3    1   36 1
     4    2    3 ar
     5    2   37 1
     6    3    4 ar
     7    3   38 1
     8    4    5 ar
     9    4    7 1
    10    5    6 ar
    11    5   39 1
    12    6   40 1
    13    7   11 1
    14    7    8 2
    15    8    9 1
    16    8   41 1
    17    9   10 2
    18    9   42 1
    19   10   11 1
    20   10   26 1
    21   11   12 1
    22   12   13 1
    23   12   43 1
    24   12   44 1
    25   13   14 2
    26   13   15 1
    27   15   16 2
    28   16   17 1
    29   16   18 1
    30   17   45 1
    31   17   46 1
    32   18   19 1
    33   18   47 1
    34   19   20 1
    35   19   48 1
    36   19   49 1
    37   20   21 1
    38   20   50 1
    39   20   51 1
    40   21   25 1
    41   21   22 2
    42   22   23 1
    43   22   52 1
    44   23   24 2
    45   23   53 1
    46   24   25 1
    47   24   54 1
    48   26   31 1
    49   26   35 1
    50   26   27 1
    51   27   28 1
    52   27   55 1
    53   27   56 1
    54   28   34 1
    55   28   29 1
    56   28   57 1
    57   29   30 1
    58   29   58 1
    59   29   59 1
    60   30   31 1
    61   30   32 1
    62   30   60 1
    63   31   61 1
    64   31   62 1
    65   32   33 1
    66   32   63 1
    67   32   64 1
    68   33   34 1
    69   33   35 1
    70   33   65 1
    71   34   66 1
    72   34   67 1
    73   35   68 1
    74   35   69 1
@<TRIPOS>MOLECULE
CHEMBL404166
   67    72     0     0     0
SMALL
USER_CHARGES

@<TRIPOS>ATOM
      1 C1         -3.0205    3.0919    5.8939 C.3       1 <0>        -0.0784
      2 C2         -2.1766    2.0062    5.2774 C.2       1 <0>         0.0670
      3 C3         -1.4318    2.2315    4.1649 C.2       1 <0>        -0.2495
      4 S1         -0.6883    0.6243    3.9356 S.3       1 <0>         0.1066
      5 C4         -1.3926   -0.1465    5.2557 C.2       1 <0>         0.0570
      6 N1         -2.1236    0.7959    5.7968 N.2       1 <0>        -0.4994
      7 C5         -1.2196   -1.5734    5.7085 C.3       1 <0>         0.2378
      8 N2         -2.2296   -2.4163    5.0637 N.pl3     1 <0>        -0.7433
      9 C6         -2.2679   -3.7530    5.3235 C.2       1 <0>         0.6323
     10 N3         -3.2298   -4.5032    4.8009 N.2       1 <0>        -0.7842
     11 C7         -4.1188   -3.9623    3.9704 C.2       1 <0>         0.4969
     12 O1         -3.7429   -3.3924    2.9648 O.2       1 <0>        -0.5795
     13 C8         -5.5912   -4.0568    4.2771 C.3       1 <0>         0.0580
     14 N4         -6.3542   -3.3895    3.2193 N.pl3     1 <0>        -0.4022
     15 C9         -6.7242   -2.0691    3.2109 C.2       1 <0>         0.0491
     16 C10        -7.4165   -1.8359    2.0609 C.2       1 <0>        -0.1799
     17 C11        -7.4689   -3.0466    1.3513 C.2       1 <0>        -0.2071
     18 C12        -6.8098   -3.9762    2.0764 C.2       1 <0>         0.0571
     19 C13        -6.6136   -5.4191    1.6886 C.3       1 <0>         0.0196
     20 C14        -5.1319   -5.7819    1.8064 C.3       1 <0>        -0.1049
     21 C15        -4.9327   -7.2469    1.4126 C.3       1 <0>        -0.0847
     22 C16        -5.3954   -7.4545   -0.0309 C.3       1 <0>        -0.1068
     23 C17        -6.8771   -7.0917   -0.1487 C.3       1 <0>        -0.0843
     24 C18        -7.0763   -5.6267    0.2450 C.3       1 <0>        -0.0920
     25 C19        -7.6969   -7.9863    0.7832 C.3       1 <0>        -0.1052
     26 C20        -7.2342   -7.7787    2.2267 C.3       1 <0>        -0.0836
     27 C21        -5.7525   -8.1415    2.3446 C.3       1 <0>        -0.1081
     28 C22        -7.4334   -6.3137    2.6205 C.3       1 <0>        -0.1030
     29 C23        -6.4251   -1.0747    4.2636 C.ar      1 <0>        -0.0034
     30 C24        -5.4085   -1.3174    5.1885 C.ar      1 <0>        -0.1367
     31 C25        -5.1342   -0.3853    6.1679 C.ar      1 <0>        -0.0860
     32 C26        -5.8644    0.7880    6.2345 C.ar      1 <0>        -0.1276
     33 C27        -6.8739    1.0345    5.3210 C.ar      1 <0>        -0.1183
     34 C28        -7.1544    0.1132    4.3331 C.ar      1 <0>        -0.1158
     35 N5         -1.3189   -4.3197    6.1198 N.2       1 <0>        -0.9012
     36 H1         -2.4290    3.6393    6.6278 H         1 <0>         0.0697
     37 H2         -3.3575    3.7764    5.1154 H         1 <0>         0.0694
     38 H3         -3.8855    2.6454    6.3844 H         1 <0>         0.0757
     39 H4         -1.3199    3.1329    3.5807 H         1 <0>         0.1895
     40 H5         -0.2247   -1.9237    5.4336 H         1 <0>         0.0801
     41 H6         -1.3379   -1.6281    6.7907 H         1 <0>         0.0857
     42 H7         -2.8710   -2.0225    4.4518 H         1 <0>         0.3971
     43 H8         -5.8847   -5.1052    4.3307 H         1 <0>         0.1024
     44 H9         -5.7951   -3.5732    5.2325 H         1 <0>         0.1028
     45 H10        -7.8458   -0.8942    1.7523 H         1 <0>         0.1292
     46 H11        -7.9470   -3.2050    0.3959 H         1 <0>         0.1301
     47 H12        -4.5479   -5.1446    1.1425 H         1 <0>         0.0663
     48 H13        -4.8023   -5.6341    2.8348 H         1 <0>         0.0757
     49 H14        -3.8772   -7.5054    1.4966 H         1 <0>         0.0684
     50 H15        -4.8113   -6.8172   -0.6948 H         1 <0>         0.0600
     51 H16        -5.2535   -8.4982   -0.3114 H         1 <0>         0.0577
     52 H17        -7.2067   -7.2395   -1.1771 H         1 <0>         0.0677
     53 H18        -8.1318   -5.3682    0.1611 H         1 <0>         0.0641
     54 H19        -6.4922   -4.9893   -0.4189 H         1 <0>         0.0655
     55 H20        -8.7524   -7.7278    0.6992 H         1 <0>         0.0596
     56 H21        -7.5550   -9.0299    0.5027 H         1 <0>         0.0591
     57 H22        -7.8183   -8.4160    2.8907 H         1 <0>         0.0675
     58 H23        -5.6106   -9.1852    2.0641 H         1 <0>         0.0585
     59 H24        -5.4229   -7.9937    3.3730 H         1 <0>         0.0633
     60 H25        -7.1038   -6.1658    3.6489 H         1 <0>         0.0592
     61 H26        -8.4890   -6.0552    2.5365 H         1 <0>         0.0632
     62 H27        -4.8380   -2.2330    5.1378 H         1 <0>         0.1290
     63 H28        -4.3480   -0.5721    6.8844 H         1 <0>         0.1234
     64 H29        -5.6458    1.5144    7.0032 H         1 <0>         0.1156
     65 H30        -7.4407    1.9520    5.3788 H         1 <0>         0.1177
     66 H31        -7.9394    0.3090    3.6176 H         1 <0>         0.1209
     67 H32        -1.3462   -5.2715    6.3048 H         1 <0>         0.3095
@<TRIPOS>BOND
     1    1    2 1
     2    1   36 1
     3    1   37 1
     4    1   38 1
     5    2    6 1
     6    2    3 2
     7    3    4 1
     8    3   39 1
     9    4    5 1
    10    5    6 2
    11    5    7 1
    12    7    8 1
    13    7   40 1
    14    7   41 1
    15    8    9 1
    16    8   42 1
    17    9   10 2
    18    9   35 1
    19   10   11 1
    20   11   12 2
    21   11   13 1
    22   13   14 1
    23   13   43 1
    24   13   44 1
    25   14   18 1
    26   14   15 1
    27   15   16 2
    28   15   29 1
    29   16   17 1
    30   16   45 1
    31   17   18 2
    32   17   46 1
    33   18   19 1
    34   19   24 1
    35   19   28 1
    36   19   20 1
    37   20   21 1
    38   20   47 1
    39   20   48 1
    40   21   27 1
    41   21   22 1
    42   21   49 1
    43   22   23 1
    44   22   50 1
    45   22   51 1
    46   23   24 1
    47   23   25 1
    48   23   52 1
    49   24   53 1
    50   24   54 1
    51   25   26 1
    52   25   55 1
    53   25   56 1
    54   26   27 1
    55   26   28 1
    56   26   57 1
    57   27   58 1
    58   27   59 1
    59   28   60 1
    60   28   61 1
    61   29   34 ar
    62   29   30 ar
    63   30   31 ar
    64   30   62 1
    65   31   32 ar
    66   31   63 1
    67   32   33 ar
    68   32   64 1
    69   33   34 ar
    70   33   65 1
    71   34   66 1
    72   35   67 1
@<TRIPOS>MOLECULE
CHEMBL404166__1
   67    72     0     0     0
SMALL
USER_CHARGES

@<TRIPOS>ATOM
      1 C1         -0.6589   -0.2638   -2.0448 C.3       1 <0>        -0.0787
      2 C2         -1.5845   -1.4287   -1.8054 C.2       1 <0>         0.0622
      3 C3         -2.6895   -1.6260   -2.5691 C.2       1 <0>        -0.2469
      4 S1         -3.3454   -3.1092   -1.8219 S.3       1 <0>         0.1087
      5 C4         -2.1645   -3.3142   -0.6402 C.2       1 <0>         0.0605
      6 N1         -1.3554   -2.3056   -0.8484 N.2       1 <0>        -0.5074
      7 C5         -2.0604   -4.3986    0.4011 C.3       1 <0>         0.2468
      8 N2         -2.7693   -3.9812    1.6134 N.pl3     1 <0>        -0.7109
      9 C6         -2.8106   -4.8064    2.6965 C.2       1 <0>         0.6262
     10 N3         -3.4526   -4.4283    3.7946 N.2       1 <0>        -0.8203
     11 C7         -3.5761   -5.2718    4.8173 C.2       1 <0>         0.5113
     12 O1         -2.5847   -5.7399    5.3421 O.2       1 <0>        -0.5660
     13 C8         -4.9450   -5.6460    5.3243 C.3       1 <0>         0.0647
     14 N4         -4.8121   -6.5797    6.4455 N.pl3     1 <0>        -0.4024
     15 C9         -4.7228   -7.9443    6.3440 C.2       1 <0>         0.0547
     16 C10        -4.6106   -8.4510    7.6037 C.2       1 <0>        -0.1820
     17 C11        -4.6322   -7.3657    8.4948 C.2       1 <0>        -0.2061
     18 C12        -4.7507   -6.2365    7.7633 C.2       1 <0>         0.0526
     19 C13        -4.8080   -4.8340    8.3116 C.3       1 <0>         0.0206
     20 C14        -3.7931   -3.9568    7.5757 C.3       1 <0>        -0.1066
     21 C15        -3.8513   -2.5329    8.1325 C.3       1 <0>        -0.0844
     22 C16        -3.5183   -2.5551    9.6256 C.3       1 <0>        -0.1070
     23 C17        -4.5332   -3.4323   10.3615 C.3       1 <0>        -0.0843
     24 C18        -4.4750   -4.8562    9.8048 C.3       1 <0>        -0.0924
     25 C19        -5.9392   -2.8633   10.1609 C.3       1 <0>        -0.1052
     26 C20        -6.2722   -2.8411    8.6678 C.3       1 <0>        -0.0836
     27 C21        -5.2573   -1.9639    7.9319 C.3       1 <0>        -0.1077
     28 C22        -6.2140   -4.2650    8.1110 C.3       1 <0>        -0.1027
     29 C23        -4.7449   -8.7272    5.0898 C.ar      1 <0>        -0.0080
     30 C24        -4.4807   -8.1034    3.8696 C.ar      1 <0>        -0.1209
     31 C25        -4.5025   -8.8396    2.7031 C.ar      1 <0>        -0.1003
     32 C26        -4.7853  -10.1934    2.7411 C.ar      1 <0>        -0.1325
     33 C27        -5.0484  -10.8178    3.9474 C.ar      1 <0>        -0.1219
     34 C28        -5.0242  -10.0942    5.1218 C.ar      1 <0>        -0.1130
     35 N5         -2.1927   -6.0197    2.6524 N.2       1 <0>        -0.9389
     36 H1          0.1137   -0.5540   -2.7569 H         1 <0>         0.0723
     37 H2         -1.2270    0.5750   -2.4469 H         1 <0>         0.0718
     38 H3         -0.1937    0.0301   -1.1039 H         1 <0>         0.0741
     39 H4         -3.0671   -1.0465   -3.3986 H         1 <0>         0.1920
     40 H5         -2.5069   -5.3156    0.0167 H         1 <0>         0.0819
     41 H6         -1.0112   -4.5764    0.6368 H         1 <0>         0.0875
     42 H7         -3.2092   -3.1173    1.6448 H         1 <0>         0.3937
     43 H8         -5.4665   -4.7491    5.6583 H         1 <0>         0.1016
     44 H9         -5.5125   -6.1191    4.5229 H         1 <0>         0.0988
     45 H10        -4.5218   -9.4943    7.8682 H         1 <0>         0.1299
     46 H11        -4.5629   -7.4234    9.5710 H         1 <0>         0.1300
     47 H12        -2.7914   -4.3622    7.7186 H         1 <0>         0.0657
     48 H13        -4.0303   -3.9410    6.5120 H         1 <0>         0.0755
     49 H14        -3.1283   -1.9080    7.6082 H         1 <0>         0.0680
     50 H15        -2.5166   -2.9605    9.7685 H         1 <0>         0.0603
     51 H16        -3.5597   -1.5407   10.0222 H         1 <0>         0.0576
     52 H17        -4.2959   -3.4481   11.4252 H         1 <0>         0.0678
     53 H18        -5.1980   -5.4811   10.3290 H         1 <0>         0.0646
     54 H19        -3.4733   -5.2615    9.9476 H         1 <0>         0.0659
     55 H20        -6.6622   -3.4882   10.6852 H         1 <0>         0.0599
     56 H21        -5.9806   -1.8489   10.5575 H         1 <0>         0.0588
     57 H22        -7.2739   -2.4358    8.5249 H         1 <0>         0.0673
     58 H23        -5.2988   -0.9495    8.3285 H         1 <0>         0.0582
     59 H24        -5.4945   -1.9481    6.8681 H         1 <0>         0.0627
     60 H25        -6.4513   -4.2492    7.0473 H         1 <0>         0.0592
     61 H26        -6.9370   -4.8899    8.6353 H         1 <0>         0.0636
     62 H27        -4.2602   -7.0466    3.8386 H         1 <0>         0.1357
     63 H28        -4.2986   -8.3581    1.7581 H         1 <0>         0.1226
     64 H29        -4.8010  -10.7653    1.8250 H         1 <0>         0.1166
     65 H30        -5.2692  -11.8747    3.9702 H         1 <0>         0.1185
     66 H31        -5.2251  -10.5837    6.0633 H         1 <0>         0.1216
     67 H32        -2.2837   -6.6376    3.3946 H         1 <0>         0.3185
@<TRIPOS>BOND
     1    1    2 1
     2    1   36 1
     3    1   37 1
     4    1   38 1
     5    2    6 1
     6    2    3 2
     7    3    4 1
     8    3   39 1
     9    4    5 1
    10    5    6 2
    11    5    7 1
    12    7    8 1
    13    7   40 1
    14    7   41 1
    15    8    9 1
    16    8   42 1
    17    9   10 2
    18    9   35 1
    19   10   11 1
    20   11   12 2
    21   11   13 1
    22   13   14 1
    23   13   43 1
    24   13   44 1
    25   14   18 1
    26   14   15 1
    27   15   16 2
    28   15   29 1
    29   16   17 1
    30   16   45 1
    31   17   18 2
    32   17   46 1
    33   18   19 1
    34   19   24 1
    35   19   28 1
    36   19   20 1
    37   20   21 1
    38   20   47 1
    39   20   48 1
    40   21   27 1
    41   21   22 1
    42   21   49 1
    43   22   23 1
    44   22   50 1
    45   22   51 1
    46   23   24 1
    47   23   25 1
    48   23   52 1
    49   24   53 1
    50   24   54 1
    51   25   26 1
    52   25   55 1
    53   25   56 1
    54   26   27 1
    55   26   28 1
    56   26   57 1
    57   27   58 1
    58   27   59 1
    59   28   60 1
    60   28   61 1
    61   29   34 ar
    62   29   30 ar
    63   30   31 ar
    64   30   62 1
    65   31   32 ar
    66   31   63 1
    67   32   33 ar
    68   32   64 1
    69   33   34 ar
    70   33   65 1
    71   34   66 1
    72   35   67 1
@<TRIPOS>MOLECULE
CHEMBL404166__2
   68    73     0     0     0
SMALL
USER_CHARGES

@<TRIPOS>ATOM
      1 C1         -0.6560   -0.2705   -2.0412 C.3       1 <0>        -0.0831
      2 C2         -1.5829   -1.4342   -1.8010 C.2       1 <0>         0.0597
      3 C3         -2.6880   -1.6309   -2.5647 C.2       1 <0>        -0.2162
      4 S1         -3.3456   -3.1129   -1.8166 S.3       1 <0>         0.1414
      5 C4         -2.1650   -3.3184   -0.6347 C.2       1 <0>         0.0119
      6 N1         -1.3548   -2.3108   -0.8434 N.2       1 <0>        -0.4880
      7 C5         -2.0621   -4.4022    0.4074 C.3       1 <0>         0.2085
      8 N2         -2.7707   -3.9833    1.6193 N.pl3     1 <0>        -0.6970
      9 C6         -2.8129   -4.8077    2.7030 C.2       1 <0>         0.7077
     10 N3         -3.4547   -4.4282    3.8007 N.2       1 <0>        -0.7015
     11 C7         -3.5792   -5.2709    4.8240 C.2       1 <0>         0.5015
     12 O1         -2.5883   -5.7398    5.3491 O.2       1 <0>        -0.5088
     13 C8         -4.9485   -5.6434    5.3311 C.3       1 <0>         0.0697
     14 N4         -4.8167   -6.5764    6.4529 N.pl3     1 <0>        -0.4175
     15 C9         -4.7288   -7.9413    6.3524 C.2       1 <0>         0.0419
     16 C10        -4.6172   -8.4472    7.6124 C.2       1 <0>        -0.1628
     17 C11        -4.6378   -7.3613    8.5027 C.2       1 <0>        -0.1949
     18 C12        -4.7550   -6.2325    7.7705 C.2       1 <0>         0.0591
     19 C13        -4.8108   -4.8296    8.3179 C.3       1 <0>         0.0166
     20 C14        -3.7949   -3.9540    7.5815 C.3       1 <0>        -0.1038
     21 C15        -3.8516   -2.5296    8.1373 C.3       1 <0>        -0.0844
     22 C16        -3.5188   -2.5512    9.6305 C.3       1 <0>        -0.1087
     23 C17        -4.5346   -3.4268   10.3669 C.3       1 <0>        -0.0855
     24 C18        -4.4780   -4.8511    9.8111 C.3       1 <0>        -0.0941
     25 C19        -5.9401   -2.8564   10.1658 C.3       1 <0>        -0.1081
     26 C20        -6.2729   -2.8349    8.6726 C.3       1 <0>        -0.0849
     27 C21        -5.2570   -1.9593    7.9363 C.3       1 <0>        -0.1088
     28 C22        -6.2162   -4.2592    8.1168 C.3       1 <0>        -0.1023
     29 C23        -4.7516   -8.7249    5.0987 C.ar      1 <0>         0.0021
     30 C24        -4.4868   -8.1022    3.8781 C.ar      1 <0>        -0.1466
     31 C25        -4.5092   -8.8392    2.7120 C.ar      1 <0>        -0.1106
     32 C26        -4.7935  -10.1927    2.7509 C.ar      1 <0>        -0.1263
     33 C27        -5.0574  -10.8159    3.9576 C.ar      1 <0>        -0.1067
     34 C28        -5.0325  -10.0916    5.1315 C.ar      1 <0>        -0.1050
     35 N5         -2.1963   -6.0217    2.6597 N.pl3     1 <0>        -0.8636
     36 H1          0.1163   -0.5620   -2.7530 H         1 <0>         0.0775
     37 H2         -1.2232    0.5687   -2.4438 H         1 <0>         0.0778
     38 H3         -0.1907    0.0235   -1.1004 H         1 <0>         0.0770
     39 H4         -3.0649   -1.0516   -3.3946 H         1 <0>         0.2012
     40 H5         -2.5096   -5.3190    0.0235 H         1 <0>         0.0990
     41 H6         -1.0131   -4.5810    0.6433 H         1 <0>         0.1038
     42 H7         -3.2097   -3.1189    1.6501 H         1 <0>         0.4280
     43 H8         -5.4691   -4.7457    5.6645 H         1 <0>         0.1230
     44 H9         -5.5164   -6.1164    4.5300 H         1 <0>         0.1165
     45 H10        -4.5296   -9.4905    7.8775 H         1 <0>         0.1372
     46 H11        -4.5687   -7.4184    9.5790 H         1 <0>         0.1381
     47 H12        -2.7937   -4.3603    7.7247 H         1 <0>         0.0666
     48 H13        -4.0321   -3.9386    6.5177 H         1 <0>         0.0608
     49 H14        -3.1279   -1.9058    7.6127 H         1 <0>         0.0689
     50 H15        -2.5175   -2.9575    9.7737 H         1 <0>         0.0616
     51 H16        -3.5592   -1.5365   10.0264 H         1 <0>         0.0622
     52 H17        -4.2975   -3.4422   11.4307 H         1 <0>         0.0727
     53 H18        -5.2017   -5.4749   10.3357 H         1 <0>         0.0685
     54 H19        -3.4767   -5.2575    9.9543 H         1 <0>         0.0675
     55 H20        -6.6638   -3.4802   10.6904 H         1 <0>         0.0630
     56 H21        -5.9804   -1.8417   10.5618 H         1 <0>         0.0627
     57 H22        -7.2742   -2.4285    8.5294 H         1 <0>         0.0714
     58 H23        -5.2974   -0.9445    8.3322 H         1 <0>         0.0631
     59 H24        -5.4942   -1.9439    6.8725 H         1 <0>         0.0604
     60 H25        -6.4534   -4.2439    7.0531 H         1 <0>         0.0562
     61 H26        -6.9400   -4.8830    8.6415 H         1 <0>         0.0683
     62 H27        -4.2651   -7.0457    3.8464 H         1 <0>         0.1113
     63 H28        -4.3048   -8.3584    1.7667 H         1 <0>         0.1195
     64 H29        -4.8098  -10.7651    1.8352 H         1 <0>         0.1234
     65 H30        -5.2792  -11.8726    3.9810 H         1 <0>         0.1271
     66 H31        -5.2339  -10.5803    6.0733 H         1 <0>         0.1293
     67 H32        -1.6653   -6.2687    1.8864 H         1 <0>         0.4027
     68 H33        -2.2882   -6.6391    3.4022 H         1 <0>         0.4231
@<TRIPOS>BOND
     1    1    2 1
     2    1   36 1
     3    1   37 1
     4    1   38 1
     5    2    6 1
     6    2    3 2
     7    3    4 1
     8    3   39 1
     9    4    5 1
    10    5    6 2
    11    5    7 1
    12    7    8 1
    13    7   40 1
    14    7   41 1
    15    8    9 1
    16    8   42 1
    17    9   10 2
    18    9   35 1
    19   10   11 1
    20   11   12 2
    21   11   13 1
    22   13   14 1
    23   13   43 1
    24   13   44 1
    25   14   18 1
    26   14   15 1
    27   15   16 2
    28   15   29 1
    29   16   17 1
    30   16   45 1
    31   17   18 2
    32   17   46 1
    33   18   19 1
    34   19   24 1
    35   19   28 1
    36   19   20 1
    37   20   21 1
    38   20   47 1
    39   20   48 1
    40   21   27 1
    41   21   22 1
    42   21   49 1
    43   22   23 1
    44   22   50 1
    45   22   51 1
    46   23   24 1
    47   23   25 1
    48   23   52 1
    49   24   53 1
    50   24   54 1
    51   25   26 1
    52   25   55 1
    53   25   56 1
    54   26   27 1
    55   26   28 1
    56   26   57 1
    57   27   58 1
    58   27   59 1
    59   28   60 1
    60   28   61 1
    61   29   34 ar
    62   29   30 ar
    63   30   31 ar
    64   30   62 1
    65   31   32 ar
    66   31   63 1
    67   32   33 ar
    68   32   64 1
    69   33   34 ar
    70   33   65 1
    71   34   66 1
    72   35   67 1
    73   35   68 1
@<TRIPOS>MOLECULE
CHEMBL404166__3
   68    73     0     0     0
SMALL
USER_CHARGES

@<TRIPOS>ATOM
      1 C1         -3.0206    3.0917    5.8934 C.3       1 <0>        -0.0828
      2 C2         -2.1765    2.0060    5.2771 C.2       1 <0>         0.0642
      3 C3         -1.4314    2.2313    4.1648 C.2       1 <0>        -0.2189
      4 S1         -0.6879    0.6241    3.9356 S.3       1 <0>         0.1379
      5 C4         -1.3925   -0.1467    5.2556 C.2       1 <0>         0.0094
      6 N1         -2.1236    0.7957    5.7965 N.2       1 <0>        -0.4801
      7 C5         -1.2196   -1.5737    5.7084 C.3       1 <0>         0.2013
      8 N2         -2.2294   -2.4165    5.0634 N.pl3     1 <0>        -0.7383
      9 C6         -2.2678   -3.7533    5.3232 C.2       1 <0>         0.7055
     10 N3         -3.2297   -4.5034    4.8007 N.2       1 <0>        -0.6967
     11 C7         -4.1188   -3.9625    3.9702 C.2       1 <0>         0.5004
     12 O1         -3.7429   -3.3925    2.9647 O.2       1 <0>        -0.5116
     13 C8         -5.5912   -4.0569    4.2770 C.3       1 <0>         0.0683
     14 N4         -6.3542   -3.3896    3.2193 N.pl3     1 <0>        -0.4172
     15 C9         -6.7241   -2.0691    3.2109 C.2       1 <0>         0.0438
     16 C10        -7.4164   -1.8359    2.0610 C.2       1 <0>        -0.1650
     17 C11        -7.4689   -3.0466    1.3513 C.2       1 <0>        -0.1954
     18 C12        -6.8099   -3.9761    2.0763 C.2       1 <0>         0.0589
     19 C13        -6.6137   -5.4191    1.6884 C.3       1 <0>         0.0169
     20 C14        -5.1320   -5.7820    1.8062 C.3       1 <0>        -0.1023
     21 C15        -4.9328   -7.2469    1.4124 C.3       1 <0>        -0.0843
     22 C16        -5.3955   -7.4544   -0.0311 C.3       1 <0>        -0.1086
     23 C17        -6.8772   -7.0916   -0.1489 C.3       1 <0>        -0.0855
     24 C18        -7.0764   -5.6266    0.2449 C.3       1 <0>        -0.0940
     25 C19        -7.6970   -7.9862    0.7830 C.3       1 <0>        -0.1080
     26 C20        -7.2343   -7.7787    2.2265 C.3       1 <0>        -0.0848
     27 C21        -5.7526   -8.1415    2.3443 C.3       1 <0>        -0.1085
     28 C22        -7.4335   -6.3137    2.6204 C.3       1 <0>        -0.1025
     29 C23        -6.4250   -1.0748    4.2637 C.ar      1 <0>        -0.0004
     30 C24        -5.4084   -1.3175    5.1885 C.ar      1 <0>        -0.1491
     31 C25        -5.1341   -0.3855    6.1680 C.ar      1 <0>        -0.0894
     32 C26        -5.8643    0.7878    6.2346 C.ar      1 <0>        -0.1234
     33 C27        -6.8737    1.0344    5.3211 C.ar      1 <0>        -0.1078
     34 C28        -7.1543    0.1131    4.3332 C.ar      1 <0>        -0.1096
     35 N5         -1.3187   -4.3200    6.1194 N.pl3     1 <0>        -0.8204
     36 H1         -2.4292    3.6391    6.6274 H         1 <0>         0.0754
     37 H2         -3.3573    3.7761    5.1148 H         1 <0>         0.0754
     38 H3         -3.8856    2.6452    6.3837 H         1 <0>         0.0780
     39 H4         -1.3194    3.1327    3.5806 H         1 <0>         0.1987
     40 H5         -0.2246   -1.9240    5.4337 H         1 <0>         0.0967
     41 H6         -1.3381   -1.6283    6.7906 H         1 <0>         0.1039
     42 H7         -2.8707   -2.0228    4.4514 H         1 <0>         0.4250
     43 H8         -5.8847   -5.1053    4.3306 H         1 <0>         0.1212
     44 H9         -5.7950   -3.5733    5.2324 H         1 <0>         0.1178
     45 H10        -7.8458   -0.8942    1.7524 H         1 <0>         0.1360
     46 H11        -7.9470   -3.2049    0.3959 H         1 <0>         0.1374
     47 H12        -4.5480   -5.1446    1.1423 H         1 <0>         0.0669
     48 H13        -4.8024   -5.6341    2.8346 H         1 <0>         0.0609
     49 H14        -3.8772   -7.5054    1.4963 H         1 <0>         0.0685
     50 H15        -4.8115   -6.8171   -0.6950 H         1 <0>         0.0613
     51 H16        -5.2536   -8.4981   -0.3117 H         1 <0>         0.0620
     52 H17        -7.2068   -7.2394   -1.1773 H         1 <0>         0.0725
     53 H18        -8.1319   -5.3681    0.1610 H         1 <0>         0.0681
     54 H19        -6.4923   -4.9892   -0.4190 H         1 <0>         0.0672
     55 H20        -8.7526   -7.7277    0.6991 H         1 <0>         0.0628
     56 H21        -7.5551   -9.0298    0.5024 H         1 <0>         0.0627
     57 H22        -7.8183   -8.4160    2.8904 H         1 <0>         0.0712
     58 H23        -5.6107   -9.1852    2.0637 H         1 <0>         0.0630
     59 H24        -5.4230   -7.9937    3.3727 H         1 <0>         0.0605
     60 H25        -7.1038   -6.1659    3.6487 H         1 <0>         0.0561
     61 H26        -8.4890   -6.0552    2.5364 H         1 <0>         0.0679
     62 H27        -4.8379   -2.2332    5.1378 H         1 <0>         0.1090
     63 H28        -4.3479   -0.5723    6.8845 H         1 <0>         0.1211
     64 H29        -5.6456    1.5142    7.0033 H         1 <0>         0.1204
     65 H30        -7.4405    1.9519    5.3790 H         1 <0>         0.1243
     66 H31        -7.9393    0.3089    3.6178 H         1 <0>         0.1266
     67 H32        -0.6156   -3.7716    6.5014 H         1 <0>         0.4115
     68 H33        -1.3460   -5.2718    6.3044 H         1 <0>         0.4280
@<TRIPOS>BOND
     1    1    2 1
     2    1   36 1
     3    1   37 1
     4    1   38 1
     5    2    6 1
     6    2    3 2
     7    3    4 1
     8    3   39 1
     9    4    5 1
    10    5    6 2
    11    5    7 1
    12    7    8 1
    13    7   40 1
    14    7   41 1
    15    8    9 1
    16    8   42 1
    17    9   10 2
    18    9   35 1
    19   10   11 1
    20   11   12 2
    21   11   13 1
    22   13   14 1
    23   13   43 1
    24   13   44 1
    25   14   18 1
    26   14   15 1
    27   15   16 2
    28   15   29 1
    29   16   17 1
    30   16   45 1
    31   17   18 2
    32   17   46 1
    33   18   19 1
    34   19   24 1
    35   19   28 1
    36   19   20 1
    37   20   21 1
    38   20   47 1
    39   20   48 1
    40   21   27 1
    41   21   22 1
    42   21   49 1
    43   22   23 1
    44   22   50 1
    45   22   51 1
    46   23   24 1
    47   23   25 1
    48   23   52 1
    49   24   53 1
    50   24   54 1
    51   25   26 1
    52   25   55 1
    53   25   56 1
    54   26   27 1
    55   26   28 1
    56   26   57 1
    57   27   58 1
    58   27   59 1
    59   28   60 1
    60   28   61 1
    61   29   34 ar
    62   29   30 ar
    63   30   31 ar
    64   30   62 1
    65   31   32 ar
    66   31   63 1
    67   32   33 ar
    68   32   64 1
    69   33   34 ar
    70   33   65 1
    71   34   66 1
    72   35   67 1
    73   35   68 1
@<TRIPOS>MOLECULE
CHEMBL272766
   67    72     0     0     0
SMALL
USER_CHARGES

@<TRIPOS>ATOM
      1 C1          1.3625   -3.8247   -4.7825 C.3       1 <0>        -0.0648
      2 C2          1.7367   -4.9105   -3.8067 C.2       1 <0>         0.1829
      3 N1          2.6078   -5.8586   -4.0052 N.2       1 <0>        -0.2811
      4 N2          2.6719   -6.6053   -2.9593 N.2       1 <0>        -0.2419
      5 C3          1.8439   -6.1590   -2.0581 C.2       1 <0>         0.1240
      6 O1          1.2373   -5.0750   -2.5703 O.3       1 <0>        -0.2169
      7 C4          1.6128   -6.7473   -0.6900 C.3       1 <0>         0.2089
      8 N3          2.5331   -6.1306    0.2686 N.pl3     1 <0>        -0.7440
      9 C5          2.5071   -6.5079    1.5773 C.2       1 <0>         0.7068
     10 N4          3.4015   -6.0187    2.4268 N.2       1 <0>        -0.6912
     11 C6          4.2684   -5.0932    2.0210 C.2       1 <0>         0.4992
     12 O2          3.8651   -4.0429    1.5610 O.2       1 <0>        -0.5087
     13 C7          5.7496   -5.3479    2.1320 C.3       1 <0>         0.0679
     14 N5          6.4842   -4.1870    1.6231 N.pl3     1 <0>        -0.4180
     15 C8          6.8682   -3.9908    0.3213 C.2       1 <0>         0.0455
     16 C9          7.5243   -2.7987    0.2538 C.2       1 <0>        -0.1657
     17 C10         7.5396   -2.2556    1.5488 C.2       1 <0>        -0.1946
     18 C11         6.8949   -3.1186    2.3634 C.2       1 <0>         0.0571
     19 C12         6.6699   -2.9331    3.8419 C.3       1 <0>         0.0170
     20 C13         5.1886   -3.1425    4.1626 C.3       1 <0>        -0.1027
     21 C14         4.9602   -2.9541    5.6637 C.3       1 <0>        -0.0843
     22 C15         5.3745   -1.5381    6.0689 C.3       1 <0>        -0.1086
     23 C16         6.8558   -1.3287    5.7482 C.3       1 <0>        -0.0855
     24 C17         7.0842   -1.5171    4.2471 C.3       1 <0>        -0.0940
     25 C18         7.6943   -2.3470    6.5234 C.3       1 <0>        -0.1081
     26 C19         7.2800   -3.7630    6.1182 C.3       1 <0>        -0.0849
     27 C20         5.7987   -3.9724    6.4389 C.3       1 <0>        -0.1086
     28 C21         7.5084   -3.9513    4.6172 C.3       1 <0>        -0.1025
     29 C22         6.6155   -4.9104   -0.8086 C.ar      1 <0>        -0.0033
     30 C23         5.6312   -5.8943   -0.7048 C.ar      1 <0>        -0.1555
     31 C24         5.4000   -6.7489   -1.7629 C.ar      1 <0>        -0.0948
     32 C25         6.1415   -6.6320   -2.9252 C.ar      1 <0>        -0.1123
     33 C26         7.1191   -5.6590   -3.0344 C.ar      1 <0>        -0.1080
     34 C27         7.3562   -4.7944   -1.9858 C.ar      1 <0>        -0.1088
     35 N6          1.5629   -7.3875    2.0140 N.pl3     1 <0>        -0.8193
     36 H1          2.0165   -2.9649   -4.6376 H         1 <0>         0.1042
     37 H2          1.4727   -4.1975   -5.8008 H         1 <0>         0.1118
     38 H3          0.3276   -3.5264   -4.6148 H         1 <0>         0.0965
     39 H4          0.5850   -6.5565   -0.3813 H         1 <0>         0.1055
     40 H5          1.7887   -7.8226   -0.7224 H         1 <0>         0.1211
     41 H6          3.1610   -5.4536   -0.0286 H         1 <0>         0.4259
     42 H7          6.0123   -5.5147    3.1766 H         1 <0>         0.1228
     43 H8          6.0117   -6.2289    1.5463 H         1 <0>         0.1182
     44 H9          7.9535   -2.3539   -0.6318 H         1 <0>         0.1364
     45 H10         7.9838   -1.3152    1.8402 H         1 <0>         0.1376
     46 H11         4.5912   -2.4171    3.6104 H         1 <0>         0.0662
     47 H12         4.8934   -4.1513    3.8740 H         1 <0>         0.0602
     48 H13         3.9049   -3.1033    5.8922 H         1 <0>         0.0687
     49 H14         4.7771   -0.8127    5.5166 H         1 <0>         0.0613
     50 H15         5.2118   -1.4040    7.1383 H         1 <0>         0.0623
     51 H16         7.1510   -0.3200    6.0369 H         1 <0>         0.0727
     52 H17         8.1395   -1.3679    4.0187 H         1 <0>         0.0685
     53 H18         6.4868   -0.7917    3.6949 H         1 <0>         0.0671
     54 H19         8.7496   -2.1978    6.2950 H         1 <0>         0.0630
     55 H20         7.5316   -2.2128    7.5928 H         1 <0>         0.0628
     56 H21         7.8774   -4.4884    6.6705 H         1 <0>         0.0715
     57 H22         5.6360   -3.8382    7.5083 H         1 <0>         0.0633
     58 H23         5.5036   -4.9812    6.1503 H         1 <0>         0.0605
     59 H24         7.2133   -4.9601    4.3285 H         1 <0>         0.0561
     60 H25         8.5637   -3.8022    4.3887 H         1 <0>         0.0683
     61 H26         5.0519   -5.9868    0.2020 H         1 <0>         0.1074
     62 H27         4.6389   -7.5110   -1.6837 H         1 <0>         0.1227
     63 H28         5.9566   -7.3034   -3.7506 H         1 <0>         0.1235
     64 H29         7.6949   -5.5734   -3.9441 H         1 <0>         0.1250
     65 H30         8.1163   -4.0323   -2.0740 H         1 <0>         0.1268
     66 H31         0.9091   -7.7452    1.3930 H         1 <0>         0.4117
     67 H32         1.5444   -7.6562    2.9458 H         1 <0>         0.4295
@<TRIPOS>BOND
     1    1    2 1
     2    1   36 1
     3    1   37 1
     4    1   38 1
     5    2    6 1
     6    2    3 2
     7    3    4 1
     8    4    5 2
     9    5    6 1
    10    5    7 1
    11    7    8 1
    12    7   39 1
    13    7   40 1
    14    8    9 1
    15    8   41 1
    16    9   10 2
    17    9   35 1
    18   10   11 1
    19   11   12 2
    20   11   13 1
    21   13   14 1
    22   13   42 1
    23   13   43 1
    24   14   18 1
    25   14   15 1
    26   15   16 2
    27   15   29 1
    28   16   17 1
    29   16   44 1
    30   17   18 2
    31   17   45 1
    32   18   19 1
    33   19   24 1
    34   19   28 1
    35   19   20 1
    36   20   21 1
    37   20   46 1
    38   20   47 1
    39   21   27 1
    40   21   22 1
    41   21   48 1
    42   22   23 1
    43   22   49 1
    44   22   50 1
    45   23   24 1
    46   23   25 1
    47   23   51 1
    48   24   52 1
    49   24   53 1
    50   25   26 1
    51   25   54 1
    52   25   55 1
    53   26   27 1
    54   26   28 1
    55   26   56 1
    56   27   57 1
    57   27   58 1
    58   28   59 1
    59   28   60 1
    60   29   34 ar
    61   29   30 ar
    62   30   31 ar
    63   30   61 1
    64   31   32 ar
    65   31   62 1
    66   32   33 ar
    67   32   63 1
    68   33   34 ar
    69   33   64 1
    70   34   65 1
    71   35   66 1
    72   35   67 1
@<TRIPOS>MOLECULE
CHEMBL272766__1
   67    72     0     0     0
SMALL
USER_CHARGES

@<TRIPOS>ATOM
      1 C1          3.5965    2.5754    0.5160 C.3       1 <0>        -0.0649
      2 C2          2.8384    1.3555    0.9721 C.2       1 <0>         0.1855
      3 N1          1.7398    0.8902    0.4488 N.2       1 <0>        -0.2868
      4 N2          1.3740   -0.1634    1.0905 N.2       1 <0>        -0.2473
      5 C3          2.2268   -0.4061    2.0449 C.2       1 <0>         0.1297
      6 O1          3.1746    0.5447    1.9895 O.3       1 <0>        -0.2174
      7 C4          2.1647   -1.5471    3.0274 C.3       1 <0>         0.2182
      8 N3          2.8875   -2.6996    2.4837 N.pl3     1 <0>        -0.7009
      9 C5          2.9662   -3.8548    3.2015 C.2       1 <0>         0.7090
     10 N4          3.6208   -4.8987    2.7090 N.2       1 <0>        -0.6979
     11 C6          3.7809   -5.9938    3.4492 C.2       1 <0>         0.5012
     12 O2          2.8095   -6.5808    3.8840 O.2       1 <0>        -0.5062
     13 C7          5.1665   -6.5055    3.7478 C.3       1 <0>         0.0700
     14 N5          5.0741   -7.7123    4.5732 N.pl3     1 <0>        -0.4179
     15 C8          5.0112   -7.7421    5.9428 C.2       1 <0>         0.0414
     16 C9          4.9331   -9.0460    6.3297 C.2       1 <0>        -0.1621
     17 C10         4.9490   -9.8299    5.1646 C.2       1 <0>        -0.1946
     18 C11         5.0303   -8.9927    4.1079 C.2       1 <0>         0.0593
     19 C12         5.0688   -9.4049    2.6588 C.3       1 <0>         0.0164
     20 C13         4.0224   -8.6105    1.8747 C.3       1 <0>        -0.1037
     21 C14         4.0615   -9.0290    0.4035 C.3       1 <0>        -0.0845
     22 C15         3.7571  -10.5241    0.2903 C.3       1 <0>        -0.1088
     23 C16         4.8036  -11.3184    1.0744 C.3       1 <0>        -0.0855
     24 C17         4.7645  -10.9000    2.5456 C.3       1 <0>        -0.0941
     25 C18         6.1935  -11.0360    0.5007 C.3       1 <0>        -0.1081
     26 C19         6.4979   -9.5409    0.6139 C.3       1 <0>        -0.0849
     27 C20         5.4514   -8.7466   -0.1702 C.3       1 <0>        -0.1089
     28 C21         6.4588   -9.1225    2.0851 C.3       1 <0>        -0.1022
     29 C22         5.0259   -6.5672    6.8405 C.ar      1 <0>         0.0025
     30 C23         4.7261   -5.2993    6.3404 C.ar      1 <0>        -0.1470
     31 C24         4.7411   -4.2073    7.1834 C.ar      1 <0>        -0.1109
     32 C25         5.0525   -4.3671    8.5219 C.ar      1 <0>        -0.1263
     33 C26         5.3512   -5.6213    9.0240 C.ar      1 <0>        -0.1064
     34 C27         5.3340   -6.7224    8.1928 C.ar      1 <0>        -0.1048
     35 N6          2.3728   -3.9382    4.4249 N.pl3     1 <0>        -0.8630
     36 H1          4.3278    2.2874   -0.2391 H         1 <0>         0.1056
     37 H2          2.9001    3.2980    0.0905 H         1 <0>         0.1123
     38 H3          4.1099    3.0233    1.3669 H         1 <0>         0.0977
     39 H4          2.6228   -1.2418    3.9682 H         1 <0>         0.1073
     40 H5          1.1240   -1.8202    3.2018 H         1 <0>         0.1208
     41 H6          3.3099   -2.6402    1.6125 H         1 <0>         0.4299
     42 H7          5.6756   -6.7424    2.8135 H         1 <0>         0.1236
     43 H8          5.7285   -5.7408    4.2840 H         1 <0>         0.1168
     44 H9          4.8709   -9.4096    7.3448 H         1 <0>         0.1375
     45 H10         4.9012  -10.9080    5.1212 H         1 <0>         0.1384
     46 H11         3.0321   -8.8117    2.2835 H         1 <0>         0.0668
     47 H12         4.2392   -7.5454    1.9554 H         1 <0>         0.0602
     48 H13         3.3160   -8.4631   -0.1551 H         1 <0>         0.0692
     49 H14         2.7669  -10.7253    0.6990 H         1 <0>         0.0618
     50 H15         3.7850  -10.8222   -0.7578 H         1 <0>         0.0624
     51 H16         4.5867  -12.3836    0.9937 H         1 <0>         0.0729
     52 H17         5.5100  -11.4659    3.1042 H         1 <0>         0.0686
     53 H18         3.7742  -11.1012    2.9543 H         1 <0>         0.0677
     54 H19         6.9390  -11.6019    1.0593 H         1 <0>         0.0630
     55 H20         6.2214  -11.3341   -0.5474 H         1 <0>         0.0628
     56 H21         7.4881   -9.3397    0.2051 H         1 <0>         0.0714
     57 H22         5.4793   -9.0447   -1.2183 H         1 <0>         0.0634
     58 H23         5.6683   -7.6814   -0.0895 H         1 <0>         0.0602
     59 H24         6.6756   -8.0573    2.1657 H         1 <0>         0.0560
     60 H25         7.2043   -9.6884    2.6437 H         1 <0>         0.0684
     61 H26         4.4831   -5.1731    5.2956 H         1 <0>         0.1106
     62 H27         4.5096   -3.2255    6.7975 H         1 <0>         0.1192
     63 H28         5.0629   -3.5091    9.1777 H         1 <0>         0.1235
     64 H29         5.5941   -5.7393   10.0697 H         1 <0>         0.1273
     65 H30         5.5626   -7.7016    8.5870 H         1 <0>         0.1296
     66 H31         1.8324   -3.2026    4.7531 H         1 <0>         0.4029
     67 H32         2.4907   -4.7333    4.9679 H         1 <0>         0.4244
@<TRIPOS>BOND
     1    1    2 1
     2    1   36 1
     3    1   37 1
     4    1   38 1
     5    2    6 1
     6    2    3 2
     7    3    4 1
     8    4    5 2
     9    5    6 1
    10    5    7 1
    11    7    8 1
    12    7   39 1
    13    7   40 1
    14    8    9 1
    15    8   41 1
    16    9   10 2
    17    9   35 1
    18   10   11 1
    19   11   12 2
    20   11   13 1
    21   13   14 1
    22   13   42 1
    23   13   43 1
    24   14   18 1
    25   14   15 1
    26   15   16 2
    27   15   29 1
    28   16   17 1
    29   16   44 1
    30   17   18 2
    31   17   45 1
    32   18   19 1
    33   19   24 1
    34   19   28 1
    35   19   20 1
    36   20   21 1
    37   20   46 1
    38   20   47 1
    39   21   27 1
    40   21   22 1
    41   21   48 1
    42   22   23 1
    43   22   49 1
    44   22   50 1
    45   23   24 1
    46   23   25 1
    47   23   51 1
    48   24   52 1
    49   24   53 1
    50   25   26 1
    51   25   54 1
    52   25   55 1
    53   26   27 1
    54   26   28 1
    55   26   56 1
    56   27   57 1
    57   27   58 1
    58   28   59 1
    59   28   60 1
    60   29   34 ar
    61   29   30 ar
    62   30   31 ar
    63   30   61 1
    64   31   32 ar
    65   31   62 1
    66   32   33 ar
    67   32   63 1
    68   33   34 ar
    69   33   64 1
    70   34   65 1
    71   35   66 1
    72   35   67 1
@<TRIPOS>MOLECULE
CHEMBL252058
   75    78     0     0     0
SMALL
USER_CHARGES

@<TRIPOS>ATOM
      1 C1          0.0235    1.5258    0.0347 C.3       1 <0>        -0.1681
      2 C2          0.0285   -0.0041    0.0172 C.3       1 <0>         0.1217
      3 N1          0.7142   -0.4765   -1.1882 N.pl3     1 <0>        -0.7460
      4 C3          0.8451   -1.8470   -1.4256 C.ar      1 <0>         0.2385
      5 C4          0.3205   -2.7599   -0.5223 C.ar      1 <0>        -0.1949
      6 C5          0.4514   -4.1279   -0.7606 C.ar      1 <0>        -0.0654
      7 C6          1.1098   -4.5731   -1.9072 C.ar      1 <0>        -0.1518
      8 C7          1.6317   -3.6552   -2.8057 C.ar      1 <0>         0.2106
      9 C8          1.4951   -2.2939   -2.5683 C.ar      1 <0>        -0.2101
     10 N2          2.2927   -4.1011   -3.9558 N.am      1 <0>        -0.5619
     11 C9          2.7803   -3.2212   -5.0244 C.3       1 <0>         0.0939
     12 C10         3.7908   -4.0695   -5.8279 C.3       1 <0>        -0.1323
     13 C11         3.2936   -5.5057   -5.5431 C.3       1 <0>        -0.1545
     14 C12         2.5676   -5.3899   -4.2210 C.2       1 <0>         0.5151
     15 O1          2.2740   -6.3243   -3.5056 O.2       1 <0>        -0.4976
     16 C13        -0.1060   -5.1041    0.2002 C.2       1 <0>         0.5642
     17 O2          0.0088   -6.2960   -0.0089 O.2       1 <0>        -0.4956
     18 N3         -0.7414   -4.6723    1.3075 N.am      1 <0>        -0.7254
     19 C14        -1.2936   -5.6395    2.2593 C.3       1 <0>         0.1276
     20 H1         -1.6664   -6.5093    1.7184 H         1 <0>         0.1092
     21 C15        -0.1993   -6.0763    3.2354 C.3       1 <0>        -0.1005
     22 C16         0.8737   -6.8230    2.4856 C.ar      1 <0>        -0.0808
     23 C17         0.7813   -8.1933    2.3287 C.ar      1 <0>        -0.1076
     24 C18         1.7656   -8.8781    1.6409 C.ar      1 <0>        -0.1109
     25 C19         2.8421   -8.1927    1.1097 C.ar      1 <0>        -0.1068
     26 C20         2.9340   -6.8222    1.2658 C.ar      1 <0>        -0.1053
     27 C21         1.9475   -6.1368    1.9499 C.ar      1 <0>        -0.1044
     28 C22        -2.4414   -4.9918    3.0365 C.3       1 <0>         0.0769
     29 H2         -3.1796   -4.6013    2.3361 H         1 <0>         0.1340
     30 C23        -3.0988   -6.0367    3.9404 C.3       1 <0>        -0.0528
     31 N4         -4.2738   -5.4473    4.5960 N.4       1 <0>        -0.4997
     32 C24        -4.9050   -6.4505    5.4639 C.3       1 <0>         0.0188
     33 C25        -5.4180   -7.6040    4.6071 C.3       1 <0>        -0.1488
     34 C26        -5.8145   -8.7824    5.5015 C.3       1 <0>        -0.0907
     35 S1         -7.1740   -8.2570    6.5886 S.3       1 <0>        -0.2219
     36 C27        -6.5288   -6.7360    7.3476 C.3       1 <0>        -0.0907
     37 C28        -6.0482   -5.7985    6.2359 C.3       1 <0>        -0.1451
     38 O3         -1.9316   -3.9231    3.8365 O.3       1 <0>        -0.5495
     39 H3          1.0500    1.8925    0.0333 H         1 <0>         0.0640
     40 H4         -0.4963    1.8975   -0.8483 H         1 <0>         0.0636
     41 H5         -0.4866    1.8773    0.9315 H         1 <0>         0.0745
     42 H6          0.5484   -0.3758    0.9002 H         1 <0>         0.0588
     43 H7         -0.9979   -0.3708    0.0186 H         1 <0>         0.0578
     44 H8          1.0773    0.1623   -1.8214 H         1 <0>         0.4028
     45 H9         -0.1883   -2.4118    0.3645 H         1 <0>         0.1210
     46 H10         1.2132   -5.6317   -2.0945 H         1 <0>         0.1670
     47 H11         1.8990   -1.5811   -3.2719 H         1 <0>         0.1296
     48 H12         1.9542   -2.9119   -5.6647 H         1 <0>         0.0842
     49 H13         3.2752   -2.3486   -4.5981 H         1 <0>         0.0879
     50 H14         3.7332   -3.8406   -6.8920 H         1 <0>         0.0997
     51 H15         4.8046   -3.9264   -5.4539 H         1 <0>         0.0878
     52 H16         2.6138   -5.8367   -6.3283 H         1 <0>         0.1125
     53 H17         4.1368   -6.1906   -5.4535 H         1 <0>         0.1102
     54 H18        -0.8331   -3.7212    1.4744 H         1 <0>         0.4049
     55 H19         0.2348   -5.1972    3.7116 H         1 <0>         0.0811
     56 H20        -0.6300   -6.7266    3.9968 H         1 <0>         0.0772
     57 H21        -0.0598   -8.7288    2.7437 H         1 <0>         0.1106
     58 H22         1.6937   -9.9488    1.5189 H         1 <0>         0.1192
     59 H23         3.6114   -8.7278    0.5730 H         1 <0>         0.1198
     60 H24         3.7752   -6.2867    0.8511 H         1 <0>         0.1165
     61 H25         2.0175   -5.0656    2.0687 H         1 <0>         0.1094
     62 H26        -3.4085   -6.8926    3.3408 H         1 <0>         0.1495
     63 H27        -2.3855   -6.3625    4.6976 H         1 <0>         0.1428
     64 H28        -3.9871   -4.6549    5.1511 H         1 <0>         0.4343
     65 H29        -4.1661   -6.8298    6.1697 H         1 <0>         0.1402
     66 H30        -6.2867   -7.2735    4.0377 H         1 <0>         0.1054
     67 H31        -4.6344   -7.9199    3.9185 H         1 <0>         0.0997
     68 H32        -6.1431   -9.6171    4.8823 H         1 <0>         0.1289
     69 H33        -4.9599   -9.0865    6.1058 H         1 <0>         0.0964
     70 H34        -7.3185   -6.2496    7.9201 H         1 <0>         0.1290
     71 H35        -5.6948   -6.9809    8.0053 H         1 <0>         0.0964
     72 H36        -5.7011   -4.8636    6.6757 H         1 <0>         0.1006
     73 H37        -6.8736   -5.5920    5.5545 H         1 <0>         0.1046
     74 H38        -1.2681   -4.1982    4.4839 H         1 <0>         0.3916
     75 H39        -4.9340   -5.1457    3.8952 H         1 <0>         0.4294
@<TRIPOS>BOND
     1    1    2 1
     2    1   39 1
     3    1   40 1
     4    1   41 1
     5    2    3 1
     6    2   42 1
     7    2   43 1
     8    3    4 1
     9    3   44 1
    10    4    9 ar
    11    4    5 ar
    12    5    6 ar
    13    5   45 1
    14    6    7 ar
    15    6   16 1
    16    7    8 ar
    17    7   46 1
    18    8    9 ar
    19    8   10 1
    20    9   47 1
    21   10   14 am
    22   10   11 1
    23   11   12 1
    24   11   48 1
    25   11   49 1
    26   12   13 1
    27   12   50 1
    28   12   51 1
    29   13   14 1
    30   13   52 1
    31   13   53 1
    32   14   15 2
    33   16   17 2
    34   16   18 am
    35   18   19 1
    36   18   54 1
    37   19   20 1
    38   19   21 1
    39   19   28 1
    40   21   22 1
    41   21   55 1
    42   21   56 1
    43   22   27 ar
    44   22   23 ar
    45   23   24 ar
    46   23   57 1
    47   24   25 ar
    48   24   58 1
    49   25   26 ar
    50   25   59 1
    51   26   27 ar
    52   26   60 1
    53   27   61 1
    54   28   29 1
    55   28   30 1
    56   28   38 1
    57   30   31 1
    58   30   62 1
    59   30   63 1
    60   31   32 1
    61   31   64 1
    62   31   75 1
    63   32   37 1
    64   32   33 1
    65   32   65 1
    66   33   34 1
    67   33   66 1
    68   33   67 1
    69   34   35 1
    70   34   68 1
    71   34   69 1
    72   35   36 1
    73   36   37 1
    74   36   70 1
    75   36   71 1
    76   37   72 1
    77   37   73 1
    78   38   74 1
@<TRIPOS>MOLECULE
CHEMBL384496
   83    85     0     0     0
SMALL
USER_CHARGES

@<TRIPOS>ATOM
      1 C1         -1.3641   -1.7606    0.1336 C.3       1 <0>        -0.1701
      2 C2          0.0963   -1.6275   -0.3028 C.3       1 <0>        -0.1401
      3 C3          0.3545   -0.2009   -0.7918 C.3       1 <0>        -0.0050
      4 H1          0.0462    0.5080   -0.0234 H         1 <0>         0.1584
      5 C4          1.8240   -0.0257   -1.0765 C.2       1 <0>         0.5061
      6 O1          2.1942    0.2726   -2.1922 O.2       1 <0>        -0.5252
      7 N1          2.7268   -0.2005   -0.0912 N.am      1 <0>        -0.7001
      8 C5          4.1553   -0.0302   -0.3679 C.3       1 <0>         0.1175
      9 C6          4.9563   -0.2838    0.9108 C.3       1 <0>        -0.1092
     10 C7          6.4523   -0.2287    0.5949 C.3       1 <0>        -0.1496
     11 C8          4.6142    0.7879    1.9478 C.3       1 <0>        -0.1532
     12 N2         -0.4145    0.0425   -2.0196 N.4       1 <0>        -0.4792
     13 C9         -0.2858    1.4539   -2.4061 C.3       1 <0>        -0.0368
     14 C10        -0.9622    1.6755   -3.7633 C.3       1 <0>         0.1311
     15 C11        -0.9442    3.1716   -4.0825 C.3       1 <0>        -0.0852
     16 C12        -1.2513    3.4085   -5.5362 C.ar      1 <0>        -0.0676
     17 C13        -0.3361    4.0801   -6.3297 C.ar      1 <0>        -0.1315
     18 C14        -0.6145    4.3167   -7.6627 C.ar      1 <0>        -0.0778
     19 C15        -1.8055    3.8818   -8.2098 C.ar      1 <0>        -0.1315
     20 C16        -2.7239    3.2016   -7.4213 C.ar      1 <0>         0.1253
     21 C17        -2.4395    2.9673   -6.0842 C.ar      1 <0>        -0.1887
     22 O2         -3.8898    2.7683   -7.9631 O.3       1 <0>        -0.3119
     23 C18        -5.0676    2.8327   -7.1588 C.3       1 <0>         0.0430
     24 C19        -5.7067    1.4447   -7.0846 C.3       1 <0>         0.0815
     25 N3         -6.9583    1.5195   -6.3228 N.am      1 <0>        -0.7189
     26 C20        -7.2581    0.6335   -5.3612 C.2       1 <0>         0.5603
     27 O3         -8.4382    0.4961   -5.0676 O.2       1 <0>        -0.5165
     28 C21        -6.2795   -0.1530   -4.5923 C.ar      1 <0>        -0.0981
     29 C22        -4.9595    0.2593   -4.4409 C.ar      1 <0>        -0.0587
     30 C23        -4.0542   -0.5275   -3.7359 C.ar      1 <0>        -0.1450
     31 C24        -4.4782   -1.7146   -3.1386 C.ar      1 <0>        -0.0350
     32 C25        -5.8049   -2.1052   -3.2488 C.ar      1 <0>         0.1589
     33 C26        -6.7040   -1.3317   -3.9634 C.ar      1 <0>        -0.0426
     34 N4         -6.2356   -3.2847   -2.6329 N.pl3     1 <0>        -0.9564
     35 C27        -5.5751   -4.5555   -2.9413 C.3       1 <0>         0.0833
     36 S1         -7.4922   -3.2449   -1.5550 S.o2      1 <0>         2.5949
     37 O4         -7.2048   -4.2798   -0.6247 O.2       1 <0>        -0.9358
     38 O5         -7.5643   -1.8902   -1.1322 O.2       1 <0>        -0.9380
     39 C28        -8.9588   -3.6732   -2.5328 C.3       1 <0>        -0.6713
     40 C29        -2.6394   -0.1044   -3.6130 C.2       1 <0>         0.5848
     41 O6         -1.7721   -0.9256   -3.3969 O.2       1 <0>        -0.5525
     42 N5         -2.3547    1.2158   -3.7060 N.am      1 <0>        -0.7279
     43 H2         -1.5496   -1.1069    0.9858 H         1 <0>         0.0747
     44 H3         -2.0171   -1.4762   -0.6915 H         1 <0>         0.0522
     45 H4         -1.5658   -2.7935    0.4172 H         1 <0>         0.0899
     46 H5          0.7494   -1.8457    0.5422 H         1 <0>         0.1120
     47 H6          0.2998   -2.3308   -1.1103 H         1 <0>         0.0979
     48 H7          2.4307   -0.4391    0.8012 H         1 <0>         0.4093
     49 H8          4.4636   -0.7391   -1.1363 H         1 <0>         0.0804
     50 H9          4.3392    0.9861   -0.7163 H         1 <0>         0.0803
     51 H10         4.7048   -1.2671    1.3081 H         1 <0>         0.0805
     52 H11         6.7038    0.7547    0.1976 H         1 <0>         0.0614
     53 H12         7.0229   -0.4094    1.5059 H         1 <0>         0.0676
     54 H13         6.6959   -0.9922   -0.1439 H         1 <0>         0.0613
     55 H14         3.5484    0.7487    2.1729 H         1 <0>         0.0505
     56 H15         5.1848    0.6073    2.8588 H         1 <0>         0.0662
     57 H16         4.8657    1.7713    1.5506 H         1 <0>         0.0608
     58 H17        -0.0593   -0.5429   -2.7606 H         1 <0>         0.4416
     59 H18        -0.7648    2.0816   -1.6547 H         1 <0>         0.1309
     60 H19         0.7697    1.7159   -2.4791 H         1 <0>         0.1582
     61 H20        -0.4214    1.1287   -4.5336 H         1 <0>         0.1206
     62 H21        -1.6903    3.6789   -3.4679 H         1 <0>         0.0973
     63 H22         0.0422    3.5763   -3.8506 H         1 <0>         0.1094
     64 H23         0.5966    4.4194   -5.9042 H         1 <0>         0.1301
     65 H24         0.0998    4.8455   -8.2762 H         1 <0>         0.1370
     66 H25        -2.0240    4.0723   -9.2504 H         1 <0>         0.1373
     67 H26        -3.1524    2.4362   -5.4721 H         1 <0>         0.1150
     68 H27        -4.8171    3.1738   -6.1560 H         1 <0>         0.0705
     69 H28        -5.7747    3.5323   -7.6092 H         1 <0>         0.0949
     70 H29        -5.9268    1.1049   -8.1024 H         1 <0>         0.0913
     71 H30        -5.0163    0.7439   -6.6250 H         1 <0>         0.0909
     72 H31        -7.5945    2.2364   -6.5254 H         1 <0>         0.4188
     73 H32        -4.6385    1.2033   -4.8577 H         1 <0>         0.1351
     74 H33        -3.7769   -2.3249   -2.5897 H         1 <0>         0.1510
     75 H34        -7.7392   -1.6335   -4.0328 H         1 <0>         0.1479
     76 H35        -4.7473   -4.7120   -2.2496 H         1 <0>         0.0717
     77 H36        -6.2914   -5.3710   -2.8411 H         1 <0>         0.0859
     78 H37        -5.1951   -4.5290   -3.9625 H         1 <0>         0.0827
     79 H38        -8.8300   -4.6653   -2.9654 H         1 <0>         0.1347
     80 H39        -9.8385   -3.6689   -1.8892 H         1 <0>         0.1401
     81 H40        -9.0892   -2.9428   -3.3313 H         1 <0>         0.1317
     82 H41        -3.0805    1.8655   -3.7193 H         1 <0>         0.4205
     83 H42        -1.3863   -0.1742   -1.8562 H         1 <0>         0.4245
@<TRIPOS>BOND
     1    1    2 1
     2    1   43 1
     3    1   44 1
     4    1   45 1
     5    2    3 1
     6    2   46 1
     7    2   47 1
     8    3    4 1
     9    3    5 1
    10    3   12 1
    11    5    6 2
    12    5    7 am
    13    7    8 1
    14    7   48 1
    15    8    9 1
    16    8   49 1
    17    8   50 1
    18    9   10 1
    19    9   11 1
    20    9   51 1
    21   10   52 1
    22   10   53 1
    23   10   54 1
    24   11   55 1
    25   11   56 1
    26   11   57 1
    27   12   13 1
    28   12   58 1
    29   12   83 1
    30   13   14 1
    31   13   59 1
    32   13   60 1
    33   14   42 1
    34   14   15 1
    35   14   61 1
    36   15   16 1
    37   15   62 1
    38   15   63 1
    39   16   21 ar
    40   16   17 ar
    41   17   18 ar
    42   17   64 1
    43   18   19 ar
    44   18   65 1
    45   19   20 ar
    46   19   66 1
    47   20   21 ar
    48   20   22 1
    49   21   67 1
    50   22   23 1
    51   23   24 1
    52   23   68 1
    53   23   69 1
    54   24   25 1
    55   24   70 1
    56   24   71 1
    57   25   26 am
    58   25   72 1
    59   26   27 2
    60   26   28 1
    61   28   33 ar
    62   28   29 ar
    63   29   30 ar
    64   29   73 1
    65   30   31 ar
    66   30   40 1
    67   31   32 ar
    68   31   74 1
    69   32   33 ar
    70   32   34 1
    71   33   75 1
    72   34   35 1
    73   34   36 1
    74   35   76 1
    75   35   77 1
    76   35   78 1
    77   36   37 2
    78   36   38 2
    79   36   39 1
    80   39   79 1
    81   39   80 1
    82   39   81 1
    83   40   41 2
    84   40   42 am
    85   42   82 1
@<TRIPOS>MOLECULE
CHEMBL384496__1
   82    84     0     0     0
SMALL
USER_CHARGES

@<TRIPOS>ATOM
      1 C1          0.9956    0.2960    1.8623 C.3       1 <0>        -0.1395
      2 C2          0.5449    0.8824    0.5229 C.3       1 <0>        -0.1028
      3 C3         -0.7148    0.1564    0.0463 C.3       1 <0>         0.0633
      4 H1         -1.0693    0.6126   -0.8780 H         1 <0>         0.0614
      5 C4         -0.3948   -1.2954   -0.2005 C.2       1 <0>         0.5120
      6 O1         -0.9785   -2.1589    0.4195 O.2       1 <0>        -0.5177
      7 N1          0.5402   -1.6341   -1.1103 N.am      1 <0>        -0.7322
      8 C5          0.8513   -3.0455   -1.3502 C.3       1 <0>         0.1243
      9 C6          1.9382   -3.1531   -2.4216 C.3       1 <0>        -0.1081
     10 C7          2.3516   -4.6173   -2.5834 C.3       1 <0>        -0.1465
     11 C8          1.3968   -2.6261   -3.7521 C.3       1 <0>        -0.1494
     12 N2         -1.7583    0.2598    1.0750 N.3       1 <0>        -0.6382
     13 C9         -2.5158    1.5103    0.9327 C.3       1 <0>         0.0407
     14 C10        -3.4917    1.6528    2.1057 C.3       1 <0>         0.1632
     15 C11        -4.1653    3.0237    2.0204 C.3       1 <0>        -0.0902
     16 C12        -5.3788    3.0757    2.9083 C.ar      1 <0>        -0.0517
     17 C13        -6.6178    3.3625    2.3600 C.ar      1 <0>        -0.1397
     18 C14        -7.7369    3.4279    3.1686 C.ar      1 <0>        -0.0837
     19 C15        -7.6246    3.2046    4.5267 C.ar      1 <0>        -0.1422
     20 C16        -6.3864    2.9096    5.0814 C.ar      1 <0>         0.1214
     21 C17        -5.2667    2.8457    4.2654 C.ar      1 <0>        -0.1830
     22 O2         -6.2799    2.6829    6.4147 O.3       1 <0>        -0.3145
     23 C18        -5.1154    3.1643    7.0859 C.3       1 <0>         0.0451
     24 C19        -4.4343    2.0039    7.8139 C.3       1 <0>         0.0812
     25 N3         -3.2799    2.5058    8.5676 N.am      1 <0>        -0.7208
     26 C20        -2.0862    1.8952    8.5278 C.2       1 <0>         0.5665
     27 O3         -1.3170    2.0972    9.4580 O.2       1 <0>        -0.5293
     28 C21        -1.6029    1.0399    7.4312 C.ar      1 <0>        -0.1157
     29 C22        -2.1088    1.1430    6.1395 C.ar      1 <0>        -0.0686
     30 C23        -1.6519    0.2941    5.1362 C.ar      1 <0>        -0.1109
     31 C24        -0.6502   -0.6366    5.4118 C.ar      1 <0>        -0.0531
     32 C25        -0.1110   -0.7103    6.6880 C.ar      1 <0>         0.1483
     33 C26        -0.5754    0.1227    7.6920 C.ar      1 <0>        -0.0418
     34 N4          0.9078   -1.6290    6.9601 N.pl3     1 <0>        -0.9539
     35 C27         2.1969   -1.1618    7.4761 C.3       1 <0>         0.0861
     36 S1          0.6570   -3.2449    6.6989 S.o2      1 <0>         2.5971
     37 O4          1.4413   -3.8980    7.6877 O.2       1 <0>        -0.9431
     38 O5         -0.7560   -3.3942    6.6800 O.2       1 <0>        -0.9353
     39 C28         1.3410   -3.5622    5.0490 C.3       1 <0>        -0.6716
     40 C29        -2.2239    0.3799    3.7719 C.2       1 <0>         0.5605
     41 O6         -2.1720   -0.5761    3.0259 O.2       1 <0>        -0.4573
     42 N5         -2.7611    1.5574    3.3749 N.am      1 <0>        -0.7262
     43 H2          1.9392    0.7533    2.1600 H         1 <0>         0.0438
     44 H3          0.2388    0.4978    2.6204 H         1 <0>         0.0705
     45 H4          1.1298   -0.7809    1.7606 H         1 <0>         0.0467
     46 H5          0.3282    1.9436    0.6455 H         1 <0>         0.0681
     47 H6          1.3378    0.7563   -0.2142 H         1 <0>         0.0590
     48 H7          1.0071   -0.9434   -1.6061 H         1 <0>         0.3981
     49 H8          1.2058   -3.5016   -0.4259 H         1 <0>         0.0664
     50 H9         -0.0461   -3.5627   -1.6898 H         1 <0>         0.0671
     51 H10         2.8036   -2.5621   -2.1219 H         1 <0>         0.0760
     52 H11         1.4862   -5.2082   -2.8831 H         1 <0>         0.0588
     53 H12         3.1260   -4.6939   -3.3467 H         1 <0>         0.0613
     54 H13         2.7373   -4.9927   -1.6356 H         1 <0>         0.0581
     55 H14         0.5313   -3.2170   -4.0518 H         1 <0>         0.0578
     56 H15         1.1022   -1.5830   -3.6368 H         1 <0>         0.0531
     57 H16         2.1711   -2.7028   -4.5154 H         1 <0>         0.0591
     58 H17        -2.3727   -0.5401    1.0485 H         1 <0>         0.3700
     59 H18        -1.8262    2.3545    0.9293 H         1 <0>         0.0746
     60 H19        -3.0734    1.4929   -0.0037 H         1 <0>         0.0372
     61 H20        -4.2449    0.8690    2.0504 H         1 <0>         0.0847
     62 H21        -3.4557    3.7925    2.3324 H         1 <0>         0.0859
     63 H22        -4.4639    3.2133    0.9883 H         1 <0>         0.0930
     64 H23        -6.7080    3.5355    1.2978 H         1 <0>         0.1256
     65 H24        -8.7000    3.6571    2.7373 H         1 <0>         0.1307
     66 H25        -8.4991    3.2616    5.1582 H         1 <0>         0.1313
     67 H26        -4.3048    2.6137    4.6963 H         1 <0>         0.1214
     68 H27        -4.4241    3.6013    6.3677 H         1 <0>         0.0715
     69 H28        -5.4061    3.9257    7.8125 H         1 <0>         0.0891
     70 H29        -5.1513    1.5583    8.5117 H         1 <0>         0.0866
     71 H30        -4.1283    1.2469    7.0980 H         1 <0>         0.0962
     72 H31        -3.3863    3.3090    9.1184 H         1 <0>         0.4133
     73 H32        -2.8478    1.8969    5.9086 H         1 <0>         0.1300
     74 H33        -0.2937   -1.2945    4.6335 H         1 <0>         0.1405
     75 H34        -0.1409    0.0709    8.6799 H         1 <0>         0.1476
     76 H35         2.1684   -1.1473    8.5656 H         1 <0>         0.0710
     77 H36         2.9872   -1.8342    7.1422 H         1 <0>         0.0796
     78 H37         2.3942   -0.1563    7.1043 H         1 <0>         0.0809
     79 H38         2.4019   -3.3124    5.0413 H         1 <0>         0.1301
     80 H39         1.2139   -4.6156    4.7994 H         1 <0>         0.1349
     81 H40         0.8180   -2.9492    4.3149 H         1 <0>         0.1324
     82 H41        -2.6477    2.3503    3.9296 H         1 <0>         0.3936
@<TRIPOS>BOND
     1    1    2 1
     2    1   43 1
     3    1   44 1
     4    1   45 1
     5    2    3 1
     6    2   46 1
     7    2   47 1
     8    3    4 1
     9    3    5 1
    10    3   12 1
    11    5    6 2
    12    5    7 am
    13    7    8 1
    14    7   48 1
    15    8    9 1
    16    8   49 1
    17    8   50 1
    18    9   10 1
    19    9   11 1
    20    9   51 1
    21   10   52 1
    22   10   53 1
    23   10   54 1
    24   11   55 1
    25   11   56 1
    26   11   57 1
    27   12   13 1
    28   12   58 1
    29   13   14 1
    30   13   59 1
    31   13   60 1
    32   14   42 1
    33   14   15 1
    34   14   61 1
    35   15   16 1
    36   15   62 1
    37   15   63 1
    38   16   21 ar
    39   16   17 ar
    40   17   18 ar
    41   17   64 1
    42   18   19 ar
    43   18   65 1
    44   19   20 ar
    45   19   66 1
    46   20   21 ar
    47   20   22 1
    48   21   67 1
    49   22   23 1
    50   23   24 1
    51   23   68 1
    52   23   69 1
    53   24   25 1
    54   24   70 1
    55   24   71 1
    56   25   26 am
    57   25   72 1
    58   26   27 2
    59   26   28 1
    60   28   33 ar
    61   28   29 ar
    62   29   30 ar
    63   29   73 1
    64   30   31 ar
    65   30   40 1
    66   31   32 ar
    67   31   74 1
    68   32   33 ar
    69   32   34 1
    70   33   75 1
    71   34   35 1
    72   34   36 1
    73   35   76 1
    74   35   77 1
    75   35   78 1
    76   36   37 2
    77   36   38 2
    78   36   39 1
    79   39   79 1
    80   39   80 1
    81   39   81 1
    82   40   41 2
    83   40   42 am
    84   42   82 1
@<TRIPOS>MOLECULE
CHEMBL384496__2
   83    85     0     0     0
SMALL
USER_CHARGES

@<TRIPOS>ATOM
      1 C1         -1.7165   -1.7390   -0.5900 C.3       1 <0>        -0.1719
      2 C2         -0.2261   -1.6031   -0.9080 C.3       1 <0>        -0.1466
      3 C3          0.0674   -0.1765   -1.3766 C.3       1 <0>         0.0024
      4 H1         -0.2847    0.5319   -0.6268 H         1 <0>         0.1678
      5 C4          1.5523   -0.0067   -1.5699 C.2       1 <0>         0.5032
      6 O1          1.9916    0.2927   -2.6600 O.2       1 <0>        -0.5187
      7 N1          2.3921   -0.1875   -0.5314 N.am      1 <0>        -0.6976
      8 C5          3.8355   -0.0225   -0.7193 C.3       1 <0>         0.1188
      9 C6          4.5553   -0.2824    0.6056 C.3       1 <0>        -0.1091
     10 C7          6.0681   -0.2328    0.3823 C.3       1 <0>        -0.1497
     11 C8          4.1545    0.7884    1.6223 C.3       1 <0>        -0.1528
     12 N2         -0.6237    0.0730   -2.6487 N.4       1 <0>        -0.4922
     13 C9         -0.4739    1.4869   -3.0182 C.3       1 <0>        -0.0399
     14 C10        -1.1121    1.7264   -4.3875 C.3       1 <0>         0.1255
     15 C11        -0.8579    3.1667   -4.8352 C.3       1 <0>        -0.0892
     16 C12         0.6162    3.4730   -4.7925 C.ar      1 <0>        -0.0638
     17 C13         1.1107    4.3568   -3.8498 C.ar      1 <0>        -0.1489
     18 C14         2.4643    4.6326   -3.8022 C.ar      1 <0>        -0.0718
     19 C15         3.3277    4.0265   -4.6935 C.ar      1 <0>        -0.1375
     20 C16         2.8353    3.1424   -5.6452 C.ar      1 <0>         0.1420
     21 C17         1.4749    2.8816   -5.6988 C.ar      1 <0>        -0.2081
     22 O2          3.6944    2.5315   -6.4988 O.3       1 <0>        -0.3055
     23 C18         3.2022    2.0670   -7.7529 C.3       1 <0>         0.0388
     24 C19         3.2173    0.5362   -7.7770 C.3       1 <0>         0.0789
     25 N3          3.0307    0.0703   -9.1527 N.am      1 <0>        -0.7163
     26 C20         2.1529   -0.8789   -9.4984 C.2       1 <0>         0.5587
     27 O3          2.3624   -1.4661  -10.5569 O.2       1 <0>        -0.5231
     28 C21         0.9293   -1.2584   -8.7744 C.ar      1 <0>        -0.1047
     29 C22         0.3702   -0.4712   -7.7748 C.ar      1 <0>        -0.0633
     30 C23        -0.7869   -0.8829   -7.1186 C.ar      1 <0>        -0.1368
     31 C24        -1.4116   -2.0762   -7.4848 C.ar      1 <0>        -0.0517
     32 C25        -0.8689   -2.8555   -8.4956 C.ar      1 <0>         0.1554
     33 C26         0.2907   -2.4549   -9.1387 C.ar      1 <0>        -0.0261
     34 N4         -1.4954   -4.0491   -8.8653 N.pl3     1 <0>        -0.9549
     35 C27        -1.9233   -4.2530  -10.2515 C.3       1 <0>         0.0817
     36 S1         -1.7538   -5.2328   -7.7364 S.o2      1 <0>         2.5983
     37 O4         -1.6667   -6.4513   -8.4622 O.2       1 <0>        -0.9323
     38 O5         -0.8347   -4.9445   -6.6918 O.2       1 <0>        -0.9447
     39 C28        -3.4543   -4.9671   -7.1634 C.3       1 <0>        -0.6729
     40 C29        -1.3458   -0.0696   -6.0150 C.2       1 <0>         0.5701
     41 O6         -2.5009   -0.2114   -5.6653 O.2       1 <0>        -0.5116
     42 N5         -0.5332    0.8021   -5.3710 N.am      1 <0>        -0.7479
     43 H2         -1.9727   -1.0796    0.2393 H         1 <0>         0.0781
     44 H3         -2.3018   -1.4636   -1.4673 H         1 <0>         0.0544
     45 H4         -1.9368   -2.7705   -0.3154 H         1 <0>         0.0912
     46 H5          0.3575   -1.8188   -0.0131 H         1 <0>         0.1172
     47 H6          0.0430   -2.3068   -1.6957 H         1 <0>         0.0976
     48 H7          2.0407   -0.4270    0.3404 H         1 <0>         0.4091
     49 H8          4.1877   -0.7309   -1.4692 H         1 <0>         0.0804
     50 H9          4.0446    0.9938   -1.0531 H         1 <0>         0.0812
     51 H10         4.2759   -1.2656    0.9841 H         1 <0>         0.0802
     52 H11         6.3475    0.7504    0.0038 H         1 <0>         0.0616
     53 H12         6.5809   -0.4179    1.3262 H         1 <0>         0.0677
     54 H13         6.3537   -0.9956   -0.3420 H         1 <0>         0.0612
     55 H14         3.0767    0.7531    1.7813 H         1 <0>         0.0502
     56 H15         4.6673    0.6032    2.5662 H         1 <0>         0.0661
     57 H16         4.4339    1.7716    1.2438 H         1 <0>         0.0610
     58 H17        -0.2216   -0.5074   -3.3694 H         1 <0>         0.4290
     59 H18        -0.9671    2.1114   -2.2733 H         1 <0>         0.1473
     60 H19         0.5852    1.7409   -3.0616 H         1 <0>         0.1584
     61 H20        -2.1880    1.5565   -4.3163 H         1 <0>         0.1342
     62 H21        -1.2246    3.2965   -5.8538 H         1 <0>         0.1024
     63 H22        -1.3900    3.8503   -4.1725 H         1 <0>         0.1030
     64 H23         0.4384    4.8329   -3.1521 H         1 <0>         0.1276
     65 H24         2.8474    5.3236   -3.0651 H         1 <0>         0.1340
     66 H25         4.3859    4.2382   -4.6514 H         1 <0>         0.1356
     67 H26         1.0792    2.2243   -6.4591 H         1 <0>         0.1203
     68 H27         2.1904    2.4274   -7.9230 H         1 <0>         0.0747
     69 H28         3.8495    2.4392   -8.5526 H         1 <0>         0.1034
     70 H29         4.1942    0.1931   -7.4150 H         1 <0>         0.0911
     71 H30         2.4522    0.1428   -7.1183 H         1 <0>         0.0868
     72 H31         3.5803    0.4776   -9.8605 H         1 <0>         0.4183
     73 H32         0.8106    0.4815   -7.5203 H         1 <0>         0.1331
     74 H33        -2.3143   -2.3901   -6.9823 H         1 <0>         0.1433
     75 H34         0.7099   -3.0655   -9.9250 H         1 <0>         0.1572
     76 H35        -1.1143   -4.7151  -10.8173 H         1 <0>         0.0756
     77 H36        -2.7974   -4.9038  -10.2700 H         1 <0>         0.0850
     78 H37        -2.1764   -3.2917  -10.6987 H         1 <0>         0.0835
     79 H38        -4.1399   -5.0569   -8.0060 H         1 <0>         0.1356
     80 H39        -3.7047   -5.7140   -6.4100 H         1 <0>         0.1371
     81 H40        -3.5401   -3.9707   -6.7298 H         1 <0>         0.1277
     82 H41         0.4214    0.7974   -5.5430 H         1 <0>         0.4145
     83 H42        -1.6034   -0.1463   -2.5478 H         1 <0>         0.4321
@<TRIPOS>BOND
     1    1    2 1
     2    1   43 1
     3    1   44 1
     4    1   45 1
     5    2    3 1
     6    2   46 1
     7    2   47 1
     8    3    4 1
     9    3    5 1
    10    3   12 1
    11    5    6 2
    12    5    7 am
    13    7    8 1
    14    7   48 1
    15    8    9 1
    16    8   49 1
    17    8   50 1
    18    9   10 1
    19    9   11 1
    20    9   51 1
    21   10   52 1
    22   10   53 1
    23   10   54 1
    24   11   55 1
    25   11   56 1
    26   11   57 1
    27   12   13 1
    28   12   58 1
    29   12   83 1
    30   13   14 1
    31   13   59 1
    32   13   60 1
    33   14   42 1
    34   14   15 1
    35   14   61 1
    36   15   16 1
    37   15   62 1
    38   15   63 1
    39   16   21 ar
    40   16   17 ar
    41   17   18 ar
    42   17   64 1
    43   18   19 ar
    44   18   65 1
    45   19   20 ar
    46   19   66 1
    47   20   21 ar
    48   20   22 1
    49   21   67 1
    50   22   23 1
    51   23   24 1
    52   23   68 1
    53   23   69 1
    54   24   25 1
    55   24   70 1
    56   24   71 1
    57   25   26 am
    58   25   72 1
    59   26   27 2
    60   26   28 1
    61   28   33 ar
    62   28   29 ar
    63   29   30 ar
    64   29   73 1
    65   30   31 ar
    66   30   40 1
    67   31   32 ar
    68   31   74 1
    69   32   33 ar
    70   32   34 1
    71   33   75 1
    72   34   35 1
    73   34   36 1
    74   35   76 1
    75   35   77 1
    76   35   78 1
    77   36   37 2
    78   36   38 2
    79   36   39 1
    80   39   79 1
    81   39   80 1
    82   39   81 1
    83   40   41 2
    84   40   42 am
    85   42   82 1
@<TRIPOS>MOLECULE
CHEMBL384496__3
   82    84     0     0     0
SMALL
USER_CHARGES

@<TRIPOS>ATOM
      1 C1          0.7100    0.5701    2.1437 C.3       1 <0>        -0.1433
      2 C2          0.0813    0.9216    0.7939 C.3       1 <0>        -0.1050
      3 C3         -1.1697    0.0680    0.5763 C.3       1 <0>         0.0690
      4 H1         -1.6412    0.3479   -0.3657 H         1 <0>         0.0678
      5 C4         -0.7830   -1.3878    0.5315 C.2       1 <0>         0.5118
      6 O1         -1.2470   -2.1637    1.3399 O.2       1 <0>        -0.5240
      7 N1          0.0785   -1.8276   -0.4071 N.am      1 <0>        -0.7282
      8 C5          0.4545   -3.2429   -0.4507 C.3       1 <0>         0.1227
      9 C6          1.4363   -3.4745   -1.6010 C.3       1 <0>        -0.1079
     10 C7          1.9250   -4.9241   -1.5703 C.3       1 <0>        -0.1467
     11 C8          0.7351   -3.2007   -2.9330 C.3       1 <0>        -0.1495
     12 N2         -2.1125    0.2904    1.6808 N.3       1 <0>        -0.6626
     13 C9         -2.9423    1.4772    1.4337 C.3       1 <0>         0.0476
     14 C10        -3.9616    1.6308    2.5637 C.3       1 <0>         0.1463
     15 C11        -4.9076    2.7929    2.2565 C.3       1 <0>        -0.0956
     16 C12        -5.5325    2.6109    0.8983 C.ar      1 <0>        -0.0393
     17 C13        -5.1872    3.4579   -0.1397 C.ar      1 <0>        -0.1465
     18 C14        -5.7520    3.2874   -1.3897 C.ar      1 <0>        -0.0755
     19 C15        -6.6610    2.2709   -1.6075 C.ar      1 <0>        -0.1493
     20 C16        -7.0149    1.4210   -0.5672 C.ar      1 <0>         0.1310
     21 C17        -6.4575    1.6064    0.6884 C.ar      1 <0>        -0.2111
     22 O2         -7.8880    0.4089   -0.7976 O.3       1 <0>        -0.3092
     23 C18        -8.6382   -0.1130    0.2959 C.3       1 <0>         0.0407
     24 C19        -8.1753   -1.5396    0.6037 C.3       1 <0>         0.0765
     25 N3         -9.1474   -2.1854    1.4883 N.am      1 <0>        -0.7165
     26 C20        -8.8077   -2.8506    2.5987 C.2       1 <0>         0.5638
     27 O3         -9.6176   -3.6728    3.0198 O.2       1 <0>        -0.5325
     28 C21        -7.5906   -2.6639    3.4044 C.ar      1 <0>        -0.1130
     29 C22        -6.7620   -1.5560    3.2725 C.ar      1 <0>        -0.0651
     30 C23        -5.6188   -1.4339    4.0582 C.ar      1 <0>        -0.1188
     31 C24        -5.3156   -2.4106    5.0082 C.ar      1 <0>        -0.0495
     32 C25        -6.1502   -3.5082    5.1578 C.ar      1 <0>         0.1493
     33 C26        -7.2794   -3.6387    4.3663 C.ar      1 <0>        -0.0342
     34 N4         -5.8493   -4.4853    6.1110 N.pl3     1 <0>        -0.9541
     35 C27        -6.8147   -4.8006    7.1668 C.3       1 <0>         0.0855
     36 S1         -4.4014   -5.2865    6.0468 S.o2      1 <0>         2.5962
     37 O4         -4.6758   -6.5746    6.5806 O.2       1 <0>        -0.9417
     38 O5         -3.9637   -5.1374    4.7032 O.2       1 <0>        -0.9341
     39 C28        -3.3094   -4.3663    7.1654 C.3       1 <0>        -0.6729
     40 C29        -4.7086   -0.2812    3.8734 C.2       1 <0>         0.5681
     41 O6         -3.9181    0.0289    4.7427 O.2       1 <0>        -0.5075
     42 N5         -4.7400    0.3928    2.6988 N.am      1 <0>        -0.7301
     43 H2          1.6408    1.1240    2.2663 H         1 <0>         0.0488
     44 H3          0.0210    0.8354    2.9456 H         1 <0>         0.0726
     45 H4          0.9163   -0.4996    2.1809 H         1 <0>         0.0473
     46 H5         -0.1925    1.9766    0.7844 H         1 <0>         0.0725
     47 H6          0.7983    0.7251   -0.0031 H         1 <0>         0.0630
     48 H7          0.4496   -1.2070   -1.0537 H         1 <0>         0.3993
     49 H8          0.9259   -3.5227    0.4914 H         1 <0>         0.0687
     50 H9         -0.4368   -3.8509   -0.6057 H         1 <0>         0.0684
     51 H10         2.2873   -2.8019   -1.4933 H         1 <0>         0.0767
     52 H11         1.0740   -5.5967   -1.6779 H         1 <0>         0.0589
     53 H12         2.6245   -5.0891   -2.3898 H         1 <0>         0.0614
     54 H13         2.4245   -5.1191   -0.6214 H         1 <0>         0.0588
     55 H14        -0.1158   -3.8734   -3.0406 H         1 <0>         0.0579
     56 H15         0.3870   -2.1681   -2.9548 H         1 <0>         0.0530
     57 H16         1.4346   -3.3658   -3.7525 H         1 <0>         0.0594
     58 H17        -2.6854   -0.5253    1.8369 H         1 <0>         0.3559
     59 H18        -2.3076    2.3625    1.3940 H         1 <0>         0.0883
     60 H19        -3.4663    1.3630    0.4848 H         1 <0>         0.0395
     61 H20        -3.4339    1.8338    3.4975 H         1 <0>         0.1206
     62 H21        -5.6917    2.8277    3.0134 H         1 <0>         0.0862
     63 H22        -4.3482    3.7291    2.2762 H         1 <0>         0.0932
     64 H23        -4.4775    4.2541    0.0274 H         1 <0>         0.1271
     65 H24        -5.4806    3.9509   -2.1983 H         1 <0>         0.1312
     66 H25        -7.0971    2.1349   -2.5862 H         1 <0>         0.1316
     67 H26        -6.7548    0.9736    1.5117 H         1 <0>         0.1209
     68 H27        -8.5139    0.5121    1.1770 H         1 <0>         0.0752
     69 H28        -9.6981   -0.1362    0.0253 H         1 <0>         0.0991
     70 H29        -8.1256   -2.0991   -0.3384 H         1 <0>         0.0890
     71 H30        -7.1858   -1.5262    1.0450 H         1 <0>         0.0904
     72 H31       -10.1014   -2.1264    1.2532 H         1 <0>         0.4147
     73 H32        -7.0146   -0.7650    2.5820 H         1 <0>         0.1311
     74 H33        -4.4344   -2.3106    5.6240 H         1 <0>         0.1428
     75 H34        -7.9261   -4.4956    4.4861 H         1 <0>         0.1520
     76 H35        -7.4778   -5.5962    6.8270 H         1 <0>         0.0714
     77 H36        -6.2825   -5.1279    8.0599 H         1 <0>         0.0813
     78 H37        -7.4022   -3.9123    7.3990 H         1 <0>         0.0812
     79 H38        -3.7299   -4.3734    8.1710 H         1 <0>         0.1319
     80 H39        -2.3255   -4.8351    7.1797 H         1 <0>         0.1357
     81 H40        -3.2166   -3.3374    6.8176 H         1 <0>         0.1319
     82 H41        -5.2528    0.0471    1.9515 H         1 <0>         0.3986
@<TRIPOS>BOND
     1    1    2 1
     2    1   43 1
     3    1   44 1
     4    1   45 1
     5    2    3 1
     6    2   46 1
     7    2   47 1
     8    3    4 1
     9    3    5 1
    10    3   12 1
    11    5    6 2
    12    5    7 am
    13    7    8 1
    14    7   48 1
    15    8    9 1
    16    8   49 1
    17    8   50 1
    18    9   10 1
    19    9   11 1
    20    9   51 1
    21   10   52 1
    22   10   53 1
    23   10   54 1
    24   11   55 1
    25   11   56 1
    26   11   57 1
    27   12   13 1
    28   12   58 1
    29   13   14 1
    30   13   59 1
    31   13   60 1
    32   14   42 1
    33   14   15 1
    34   14   61 1
    35   15   16 1
    36   15   62 1
    37   15   63 1
    38   16   21 ar
    39   16   17 ar
    40   17   18 ar
    41   17   64 1
    42   18   19 ar
    43   18   65 1
    44   19   20 ar
    45   19   66 1
    46   20   21 ar
    47   20   22 1
    48   21   67 1
    49   22   23 1
    50   23   24 1
    51   23   68 1
    52   23   69 1
    53   24   25 1
    54   24   70 1
    55   24   71 1
    56   25   26 am
    57   25   72 1
    58   26   27 2
    59   26   28 1
    60   28   33 ar
    61   28   29 ar
    62   29   30 ar
    63   29   73 1
    64   30   31 ar
    65   30   40 1
    66   31   32 ar
    67   31   74 1
    68   32   33 ar
    69   32   34 1
    70   33   75 1
    71   34   35 1
    72   34   36 1
    73   35   76 1
    74   35   77 1
    75   35   78 1
    76   36   37 2
    77   36   38 2
    78   36   39 1
    79   39   79 1
    80   39   80 1
    81   39   81 1
    82   40   41 2
    83   40   42 am
    84   42   82 1
@<TRIPOS>MOLECULE
CHEMBL1208998
   68    71     0     0     0
SMALL
USER_CHARGES

@<TRIPOS>ATOM
      1 C1         -0.5268    2.5634    0.6610 C.3       1 <0>        -0.1840
      2 C2         -0.7056    1.0960    0.3679 C.2       1 <0>         0.5119
      3 O1          0.2372    0.4342   -0.0117 O.2       1 <0>        -0.5317
      4 N1         -1.9131    0.5192    0.5276 N.am      1 <0>        -0.7327
      5 C3         -2.0869   -0.9073    0.2427 C.3       1 <0>         0.1325
      6 H1         -3.1228   -1.1913    0.4281 H         1 <0>         0.1054
      7 C4         -1.7372   -1.1813   -1.2213 C.3       1 <0>        -0.0988
      8 C5         -2.7233   -0.4734   -2.1143 C.ar      1 <0>        -0.0282
      9 C6         -3.8834   -1.1141   -2.5065 C.ar      1 <0>        -0.1646
     10 C7         -4.7900   -0.4647   -3.3274 C.ar      1 <0>         0.1397
     11 C8         -4.5342    0.8267   -3.7549 C.ar      1 <0>        -0.1924
     12 C9         -3.3722    1.4676   -3.3611 C.ar      1 <0>         0.1388
     13 C10        -2.4695    0.8181   -2.5360 C.ar      1 <0>        -0.1583
     14 F1         -3.1213    2.7281   -3.7776 F         1 <0>        -0.1259
     15 F2         -5.9235   -1.0916   -3.7113 F         1 <0>        -0.1256
     16 C11        -1.1641   -1.7245    1.1491 C.3       1 <0>         0.0682
     17 H2         -0.1282   -1.4406    0.9637 H         1 <0>         0.1453
     18 C12        -1.5139   -1.4505    2.6132 C.3       1 <0>        -0.0561
     19 N2         -0.5526   -2.1406    3.4837 N.4       1 <0>        -0.4990
     20 C13        -0.9599   -1.9812    4.8861 C.3       1 <0>         0.1163
     21 C14        -1.0107   -0.4927    5.2363 C.3       1 <0>        -0.1368
     22 C15         0.3737    0.1264    5.0337 C.3       1 <0>        -0.1354
     23 C16         1.3847   -0.5769    5.9415 C.3       1 <0>        -0.1323
     24 C17         1.4355   -2.0654    5.5912 C.3       1 <0>        -0.1365
     25 C18         0.0512   -2.6845    5.7938 C.3       1 <0>        -0.1316
     26 C19        -2.3234   -2.5911    5.0856 C.ar      1 <0>        -0.1153
     27 C20        -2.7484   -3.6171    4.2606 C.ar      1 <0>        -0.1443
     28 C21        -3.9985   -4.1813    4.4381 C.ar      1 <0>        -0.0907
     29 C22        -4.8296   -3.7226    5.4403 C.ar      1 <0>        -0.0916
     30 C23        -4.4067   -2.6897    6.2740 C.ar      1 <0>         0.0236
     31 C24        -3.1437   -2.1289    6.0946 C.ar      1 <0>        -0.0956
     32 C25        -5.2959   -2.1923    7.3533 C.2       1 <0>        -0.1716
     33 C26        -6.6410   -2.6751    7.6849 C.2       1 <0>        -0.2054
     34 C27        -7.0552   -1.9333    8.7259 C.2       1 <0>        -0.0177
     35 O2         -6.0920   -1.0568    9.0481 O.3       1 <0>        -0.1731
     36 C28        -5.0302   -1.2003    8.2418 C.2       1 <0>        -0.0018
     37 O3         -1.3337   -3.1160    0.8712 O.3       1 <0>        -0.5423
     38 H3          0.5091    2.8473    0.4756 H         1 <0>         0.1002
     39 H4         -1.1842    3.1456    0.0153 H         1 <0>         0.0959
     40 H5         -0.7759    2.7586    1.7040 H         1 <0>         0.0909
     41 H6         -2.6671    1.0485    0.8312 H         1 <0>         0.4118
     42 H7         -0.7315   -0.8160   -1.4291 H         1 <0>         0.1083
     43 H8         -1.7805   -2.2539   -1.4106 H         1 <0>         0.1016
     44 H9         -4.0827   -2.1217   -2.1728 H         1 <0>         0.1430
     45 H10        -5.2406    1.3338   -4.3954 H         1 <0>         0.1523
     46 H11        -1.5649    1.3196   -2.2250 H         1 <0>         0.1362
     47 H12        -1.4706   -0.3780    2.8025 H         1 <0>         0.1411
     48 H13        -2.5196   -1.8159    2.8210 H         1 <0>         0.1418
     49 H14        -0.5307   -3.1218    3.2492 H         1 <0>         0.4281
     50 H15        -1.7310    0.0083    4.5896 H         1 <0>         0.0898
     51 H16        -1.3129   -0.3745    6.2769 H         1 <0>         0.1130
     52 H17         0.6758    0.0082    3.9932 H         1 <0>         0.0571
     53 H18         0.3374    1.1869    5.2833 H         1 <0>         0.0946
     54 H19         2.3710   -0.1358    5.7972 H         1 <0>         0.0828
     55 H20         1.0825   -0.4586    6.9821 H         1 <0>         0.0806
     56 H21         1.7377   -2.1836    4.5507 H         1 <0>         0.0580
     57 H22         2.1558   -2.5664    6.2379 H         1 <0>         0.0959
     58 H23        -0.2510   -2.5663    6.8344 H         1 <0>         0.1135
     59 H24         0.0874   -3.7450    5.5443 H         1 <0>         0.0914
     60 H25        -2.1016   -3.9785    3.4748 H         1 <0>         0.1182
     61 H26        -4.3253   -4.9820    3.7912 H         1 <0>         0.1386
     62 H27        -5.8059   -4.1634    5.5777 H         1 <0>         0.1359
     63 H28        -2.8093   -1.3309    6.7409 H         1 <0>         0.1329
     64 H29        -7.1874   -3.4658    7.1923 H         1 <0>         0.1561
     65 H30        -8.0096   -2.0270    9.2227 H         1 <0>         0.2105
     66 H31        -4.1187   -0.6231    8.2895 H         1 <0>         0.2033
     67 H32        -2.2338   -3.4389    1.0148 H         1 <0>         0.3864
     68 H33         0.3654   -1.7430    3.3528 H         1 <0>         0.4277
@<TRIPOS>BOND
     1    1    2 1
     2    1   38 1
     3    1   39 1
     4    1   40 1
     5    2    3 2
     6    2    4 am
     7    4    5 1
     8    4   41 1
     9    5    6 1
    10    5    7 1
    11    5   16 1
    12    7    8 1
    13    7   42 1
    14    7   43 1
    15    8   13 ar
    16    8    9 ar
    17    9   10 ar
    18    9   44 1
    19   10   11 ar
    20   10   15 1
    21   11   12 ar
    22   11   45 1
    23   12   13 ar
    24   12   14 1
    25   13   46 1
    26   16   17 1
    27   16   18 1
    28   16   37 1
    29   18   19 1
    30   18   47 1
    31   18   48 1
    32   19   20 1
    33   19   49 1
    34   19   68 1
    35   20   25 1
    36   20   21 1
    37   20   26 1
    38   21   22 1
    39   21   50 1
    40   21   51 1
    41   22   23 1
    42   22   52 1
    43   22   53 1
    44   23   24 1
    45   23   54 1
    46   23   55 1
    47   24   25 1
    48   24   56 1
    49   24   57 1
    50   25   58 1
    51   25   59 1
    52   26   31 ar
    53   26   27 ar
    54   27   28 ar
    55   27   60 1
    56   28   29 ar
    57   28   61 1
    58   29   30 ar
    59   29   62 1
    60   30   31 ar
    61   30   32 1
    62   31   63 1
    63   32   36 2
    64   32   33 1
    65   33   34 2
    66   33   64 1
    67   34   35 1
    68   34   65 1
    69   35   36 1
    70   36   66 1
    71   37   67 1
@<TRIPOS>MOLECULE
CHEMBL1208999
   68    71     0     0     0
SMALL
USER_CHARGES

@<TRIPOS>ATOM
      1 C1          4.7775   -4.1171    6.2970 C.3       1 <0>        -0.1840
      2 C2          4.3459   -3.4424    5.0204 C.2       1 <0>         0.5119
      3 O1          4.1879   -4.0972    4.0119 O.2       1 <0>        -0.5317
      4 N1          4.1355   -2.1113    4.9996 N.am      1 <0>        -0.7327
      5 C3          3.7159   -1.4554    3.7586 C.3       1 <0>         0.1326
      6 H1          3.5966   -0.3864    3.9351 H         1 <0>         0.1053
      7 C4          4.7774   -1.6788    2.6796 C.3       1 <0>        -0.0988
      8 C5          6.0557   -0.9898    3.0822 C.ar      1 <0>        -0.0282
      9 C6          6.2791    0.3228    2.7114 C.ar      1 <0>        -0.1647
     10 C7          7.4536    0.9568    3.0804 C.ar      1 <0>         0.1397
     11 C8          8.4039    0.2756    3.8212 C.ar      1 <0>        -0.1923
     12 C9          8.1789   -1.0388    4.1924 C.ar      1 <0>         0.1388
     13 C10         7.0014   -1.6691    3.8267 C.ar      1 <0>        -0.1582
     14 F1          9.1056   -1.7049    4.9155 F         1 <0>        -0.1259
     15 F2          7.6720    2.2395    2.7170 F         1 <0>        -0.1256
     16 C11         2.3838   -2.0475    3.2940 C.3       1 <0>         0.0682
     17 H2          2.5032   -3.1165    3.1176 H         1 <0>         0.1453
     18 C12         1.3224   -1.8241    4.3731 C.3       1 <0>        -0.0562
     19 N2          0.0763   -2.4957    3.9806 N.4       1 <0>        -0.4989
     20 C13        -0.9782   -2.1785    4.9530 C.3       1 <0>         0.1163
     21 C14        -2.2712   -2.8926    4.5542 C.3       1 <0>        -0.1316
     22 C15        -2.0339   -4.4039    4.5342 C.3       1 <0>        -0.1364
     23 C16        -1.6017   -4.8708    5.9256 C.3       1 <0>        -0.1322
     24 C17        -0.3087   -4.1567    6.3244 C.3       1 <0>        -0.1353
     25 C18        -0.5460   -2.6454    6.3444 C.3       1 <0>        -0.1368
     26 C19        -1.2119   -0.6899    4.9727 C.ar      1 <0>        -0.1168
     27 C20        -0.9309    0.0681    3.8500 C.ar      1 <0>        -0.1423
     28 C21        -1.1434    1.4347    3.8609 C.ar      1 <0>        -0.0913
     29 C22        -1.6372    2.0499    4.9936 C.ar      1 <0>        -0.0941
     30 C23        -1.9220    1.2915    6.1272 C.ar      1 <0>         0.0048
     31 C24        -1.7113   -0.0862    6.1086 C.ar      1 <0>        -0.0897
     32 C25        -2.4530    1.9471    7.3476 C.2       1 <0>        -0.0984
     33 C26        -2.6783    3.3201    7.3772 C.2       1 <0>        -0.1575
     34 C27        -3.1630    3.8813    8.5078 C.2       1 <0>        -0.1599
     35 S1         -3.3226    2.4721    9.5913 S.3       1 <0>         0.0807
     36 C28        -2.7373    1.2155    8.4667 C.2       1 <0>        -0.1688
     37 O2          1.9746   -1.4077    2.0836 O.3       1 <0>        -0.5423
     38 H3          4.8969   -5.1861    6.1205 H         1 <0>         0.1002
     39 H4          5.7265   -3.6953    6.6280 H         1 <0>         0.0959
     40 H5          4.0214   -3.9579    7.0657 H         1 <0>         0.0909
     41 H6          4.2619   -1.5876    5.8062 H         1 <0>         0.4118
     42 H7          4.9607   -2.7472    2.5659 H         1 <0>         0.1083
     43 H8          4.4256   -1.2678    1.7333 H         1 <0>         0.1015
     44 H9          5.5374    0.8541    2.1334 H         1 <0>         0.1430
     45 H10         9.3203    0.7691    4.1091 H         1 <0>         0.1523
     46 H11         6.8237   -2.6932    4.1199 H         1 <0>         0.1362
     47 H12         1.6742   -2.2350    5.3194 H         1 <0>         0.1412
     48 H13         1.1391   -0.7556    4.4867 H         1 <0>         0.1418
     49 H14        -0.2036   -2.1771    3.0651 H         1 <0>         0.4280
     50 H15        -3.0536   -2.6572    5.2757 H         1 <0>         0.1135
     51 H16        -2.5791   -2.5600    3.5629 H         1 <0>         0.0913
     52 H17        -2.9551   -4.9126    4.2501 H         1 <0>         0.0959
     53 H18        -1.2515   -4.6393    3.8127 H         1 <0>         0.0580
     54 H19        -2.3841   -4.6354    6.6471 H         1 <0>         0.0806
     55 H20        -1.4326   -5.9475    5.9114 H         1 <0>         0.0828
     56 H21        -0.0008   -4.4893    7.3157 H         1 <0>         0.0946
     57 H22         0.4737   -4.3921    5.6029 H         1 <0>         0.0571
     58 H23         0.3752   -2.1366    6.6285 H         1 <0>         0.0898
     59 H24        -1.3284   -2.4100    7.0659 H         1 <0>         0.1129
     60 H25        -0.5437   -0.4090    2.9618 H         1 <0>         0.1181
     61 H26        -0.9223    2.0216    2.9817 H         1 <0>         0.1384
     62 H27        -1.8022    3.1172    5.0013 H         1 <0>         0.1369
     63 H28        -1.9345   -0.6795    6.9830 H         1 <0>         0.1346
     64 H29        -2.4688    3.9284    6.5098 H         1 <0>         0.1389
     65 H30        -3.3944    4.9176    8.7049 H         1 <0>         0.1929
     66 H31        -2.6337    0.1528    8.6288 H         1 <0>         0.1858
     67 H32         1.8488   -0.4525    2.1666 H         1 <0>         0.3864
     68 H33         0.2245   -3.4935    3.9588 H         1 <0>         0.4277
@<TRIPOS>BOND
     1    1    2 1
     2    1   38 1
     3    1   39 1
     4    1   40 1
     5    2    3 2
     6    2    4 am
     7    4    5 1
     8    4   41 1
     9    5    6 1
    10    5    7 1
    11    5   16 1
    12    7    8 1
    13    7   42 1
    14    7   43 1
    15    8   13 ar
    16    8    9 ar
    17    9   10 ar
    18    9   44 1
    19   10   11 ar
    20   10   15 1
    21   11   12 ar
    22   11   45 1
    23   12   13 ar
    24   12   14 1
    25   13   46 1
    26   16   17 1
    27   16   18 1
    28   16   37 1
    29   18   19 1
    30   18   47 1
    31   18   48 1
    32   19   20 1
    33   19   49 1
    34   19   68 1
    35   20   25 1
    36   20   21 1
    37   20   26 1
    38   21   22 1
    39   21   50 1
    40   21   51 1
    41   22   23 1
    42   22   52 1
    43   22   53 1
    44   23   24 1
    45   23   54 1
    46   23   55 1
    47   24   25 1
    48   24   56 1
    49   24   57 1
    50   25   58 1
    51   25   59 1
    52   26   31 ar
    53   26   27 ar
    54   27   28 ar
    55   27   60 1
    56   28   29 ar
    57   28   61 1
    58   29   30 ar
    59   29   62 1
    60   30   31 ar
    61   30   32 1
    62   31   63 1
    63   32   36 2
    64   32   33 1
    65   33   34 2
    66   33   64 1
    67   34   35 1
    68   34   65 1
    69   35   36 1
    70   36   66 1
    71   37   67 1
@<TRIPOS>MOLECULE
CHEMBL591070
   57    60     0     0     0
SMALL
USER_CHARGES

@<TRIPOS>ATOM
      1 C1         -1.8683   -4.1958    6.0503 C.3       1 <0>         0.0636
      2 N1         -2.0688   -3.5531    7.3515 N.pl3     1 <0>        -0.4077
      3 C2         -2.6840   -4.1114    8.4225 C.2       1 <0>         0.0324
      4 C3         -2.6804   -3.2209    9.4432 C.2       1 <0>        -0.2056
      5 C4         -2.0396   -2.0605    8.9980 C.2       1 <0>        -0.1297
      6 C5         -1.6585   -2.2840    7.6918 C.2       1 <0>        -0.0727
      7 C6         -0.9483   -1.3404    6.8225 C.2       1 <0>         0.5994
      8 O1         -0.7470   -1.6212    5.6555 O.2       1 <0>        -0.5234
      9 N2         -0.5187   -0.1620    7.3158 N.am      1 <0>        -0.6604
     10 C7         -0.0100    0.8136    6.4527 C.ar      1 <0>         0.1718
     11 C8          0.4947    0.4494    5.2108 C.ar      1 <0>        -0.1231
     12 C9          0.9958    1.4154    4.3607 C.ar      1 <0>        -0.0865
     13 C10         0.9959    2.7440    4.7447 C.ar      1 <0>        -0.1271
     14 C11         0.4947    3.1098    5.9803 C.ar      1 <0>        -0.0942
     15 C12        -0.0137    2.1492    6.8329 C.ar      1 <0>        -0.1264
     16 C13         0.4978    4.5586    6.3950 C.3       1 <0>         0.1821
     17 C14        -0.9160    5.0426    6.6364 C.2       1 <0>         0.5397
     18 O2         -1.6975    4.6171    7.4601 O.2       1 <0>        -0.3957
     19 N3         -1.1354    6.0385    5.7573 N.am      1 <0>        -0.5551
     20 C15        -0.0312    6.2609    4.9711 C.cat     1 <0>         0.7284
     21 N4          0.9926    5.4063    5.2981 N.pl3     1 <0>        -0.6598
     22 N5          0.0359    7.1648    4.0366 N.pl3     1 <0>        -0.7350
     23 C16        -2.3897    6.7881    5.6527 C.3       1 <0>         0.0556
     24 C17         1.3534    4.7528    7.6484 C.3       1 <0>        -0.0806
     25 C18         1.2935    6.2180    8.0848 C.3       1 <0>        -0.1226
     26 C19         2.1491    6.4122    9.3382 C.3       1 <0>        -0.1185
     27 C20         3.5985    6.0306    9.0305 C.3       1 <0>        -0.1238
     28 C21         3.6584    4.5654    8.5941 C.3       1 <0>        -0.1211
     29 C22         2.8027    4.3712    7.3407 C.3       1 <0>        -0.1115
     30 H1         -0.8748   -4.6427    6.0150 H         1 <0>         0.0796
     31 H2         -2.6209   -4.9715    5.9084 H         1 <0>         0.0892
     32 H3         -1.9602   -3.4514    5.2594 H         1 <0>         0.0994
     33 H4         -3.1084   -5.1039    8.4563 H         1 <0>         0.1754
     34 H5         -3.0985   -3.3790   10.4264 H         1 <0>         0.1487
     35 H6         -1.8719   -1.1602    9.5704 H         1 <0>         0.1447
     36 H7         -0.5623    0.0093    8.2696 H         1 <0>         0.4189
     37 H8          0.4955   -0.5880    4.9106 H         1 <0>         0.1727
     38 H9          1.3884    1.1329    3.3950 H         1 <0>         0.1370
     39 H10         1.3888    3.4975    4.0781 H         1 <0>         0.1189
     40 H11        -0.4092    2.4361    7.7961 H         1 <0>         0.1382
     41 H12        -0.7276    7.7360    3.8587 H         1 <0>         0.4485
     42 H13        -2.3506    7.6556    6.3116 H         1 <0>         0.1027
     43 H14        -2.5304    7.1194    4.6239 H         1 <0>         0.0992
     44 H15        -3.2215    6.1472    5.9450 H         1 <0>         0.1195
     45 H16         0.9732    4.1192    8.4497 H         1 <0>         0.1145
     46 H17         1.6737    6.8516    7.2835 H         1 <0>         0.0631
     47 H18         0.2610    6.4899    8.3040 H         1 <0>         0.0610
     48 H19         2.1064    7.4561    9.6491 H         1 <0>         0.0715
     49 H20         1.7689    5.7786   10.1395 H         1 <0>         0.0713
     50 H21         3.9787    6.6642    8.2292 H         1 <0>         0.0624
     51 H22         4.2081    6.1690    9.9235 H         1 <0>         0.0719
     52 H23         4.6909    4.2935    8.3748 H         1 <0>         0.0737
     53 H24         3.2781    3.9318    9.3953 H         1 <0>         0.0702
     54 H25         2.8454    3.3273    7.0297 H         1 <0>         0.0797
     55 H26         3.1830    5.0048    6.5394 H         1 <0>         0.0615
     56 H27         1.8704    5.3690    4.8871 H         1 <0>         0.4626
     57 H28         0.8494    7.2671    3.5183 H         1 <0>         0.4515
@<TRIPOS>BOND
     1    1    2 1
     2    1   30 1
     3    1   31 1
     4    1   32 1
     5    2    6 1
     6    2    3 1
     7    3    4 2
     8    3   33 1
     9    4    5 1
    10    4   34 1
    11    5    6 2
    12    5   35 1
    13    6    7 1
    14    7    8 2
    15    7    9 am
    16    9   10 1
    17    9   36 1
    18   10   15 ar
    19   10   11 ar
    20   11   12 ar
    21   11   37 1
    22   12   13 ar
    23   12   38 1
    24   13   14 ar
    25   13   39 1
    26   14   15 ar
    27   14   16 1
    28   15   40 1
    29   16   21 1
    30   16   17 1
    31   16   24 1
    32   17   18 2
    33   17   19 am
    34   19   20 1
    35   19   23 1
    36   20   21 1
    37   20   22 2
    38   21   56 1
    39   22   41 1
    40   22   57 1
    41   23   42 1
    42   23   43 1
    43   23   44 1
    44   24   29 1
    45   24   25 1
    46   24   45 1
    47   25   26 1
    48   25   46 1
    49   25   47 1
    50   26   27 1
    51   26   48 1
    52   26   49 1
    53   27   28 1
    54   27   50 1
    55   27   51 1
    56   28   29 1
    57   28   52 1
    58   28   53 1
    59   29   54 1
    60   29   55 1
@<TRIPOS>MOLECULE
CHEMBL591070__1
   57    60     0     0     0
SMALL
USER_CHARGES

@<TRIPOS>ATOM
      1 C1         -1.8895   -4.1902    6.0504 C.3       1 <0>         0.0635
      2 N1         -2.0947   -3.5452    7.3497 N.pl3     1 <0>        -0.4076
      3 C2         -2.7164   -4.1005    8.4185 C.2       1 <0>         0.0328
      4 C3         -2.7155   -3.2086    9.4380 C.2       1 <0>        -0.2055
      5 C4         -2.0697   -2.0505    8.9943 C.2       1 <0>        -0.1294
      6 C5         -1.6828   -2.2767    7.6902 C.2       1 <0>        -0.0731
      7 C6         -0.9661   -1.3360    6.8231 C.2       1 <0>         0.5997
      8 O1         -0.7598   -1.6190    5.6575 O.2       1 <0>        -0.5230
      9 N2         -0.5359   -0.1581    7.3169 N.am      1 <0>        -0.6604
     10 C7         -0.0206    0.8150    6.4550 C.ar      1 <0>         0.1736
     11 C8          0.4889    0.4480    5.2159 C.ar      1 <0>        -0.1218
     12 C9          0.9965    1.4115    4.3669 C.ar      1 <0>        -0.0843
     13 C10         0.9986    2.7406    4.7493 C.ar      1 <0>        -0.1290
     14 C11         0.4926    3.1093    5.9821 C.ar      1 <0>        -0.0953
     15 C12        -0.0223    2.1512    6.8335 C.ar      1 <0>        -0.1250
     16 C13         0.4978    4.5586    6.3950 C.3       1 <0>         0.1707
     17 C14        -0.9174    5.0513    6.6247 C.2       1 <0>         0.5408
     18 O2         -1.7173    4.6427    7.4391 O.2       1 <0>        -0.3898
     19 N3         -1.0942    6.0434    5.7268 N.am      1 <0>        -0.5550
     20 C15         0.0391    6.2216    4.9726 C.cat     1 <0>         0.7289
     21 N4          0.9936    5.4060    5.2988 N.pl3     1 <0>        -0.6202
     22 N5          0.1502    7.1633    3.9777 N.pl3     1 <0>        -0.7795
     23 C16        -2.3257    6.8227    5.5776 C.3       1 <0>         0.0582
     24 C17         1.3482    4.7543    7.6517 C.3       1 <0>        -0.0807
     25 C18         1.2868    6.2201    8.0859 C.3       1 <0>        -0.1246
     26 C19         2.1372    6.4158    9.3426 C.3       1 <0>        -0.1181
     27 C20         3.5877    6.0335    9.0415 C.3       1 <0>        -0.1245
     28 C21         3.6492    4.5677    8.6073 C.3       1 <0>        -0.1208
     29 C22         2.7987    4.3720    7.3505 C.3       1 <0>        -0.1130
     30 H1         -0.8968   -4.6393    6.0203 H         1 <0>         0.0797
     31 H2         -2.6431   -4.9644    5.9060 H         1 <0>         0.0894
     32 H3         -1.9761   -3.4467    5.2580 H         1 <0>         0.0994
     33 H4         -3.1434   -5.0919    8.4516 H         1 <0>         0.1755
     34 H5         -3.1387   -3.3643   10.4194 H         1 <0>         0.1488
     35 H6         -1.9024   -1.1498    9.5663 H         1 <0>         0.1447
     36 H7         -0.5837    0.0147    8.2702 H         1 <0>         0.4193
     37 H8          0.4883   -0.5898    4.9170 H         1 <0>         0.1737
     38 H9          1.3928    1.1268    3.4034 H         1 <0>         0.1383
     39 H10         1.3965    3.4922    4.0836 H         1 <0>         0.1179
     40 H11        -0.4215    2.4403    7.7945 H         1 <0>         0.1391
     41 H12        -0.5979    7.7473    3.7769 H         1 <0>         0.4441
     42 H13         0.9766    7.2439    3.4763 H         1 <0>         0.4459
     43 H14        -2.2825    7.6981    6.2256 H         1 <0>         0.1018
     44 H15        -2.4297    7.1429    4.5409 H         1 <0>         0.1001
     45 H16        -3.1812    6.2070    5.8552 H         1 <0>         0.1179
     46 H17         0.9645    4.1218    8.4522 H         1 <0>         0.1184
     47 H18         1.6705    6.8526    7.2854 H         1 <0>         0.0628
     48 H19         0.2534    6.4925    8.3005 H         1 <0>         0.0631
     49 H20         2.0935    7.4601    9.6520 H         1 <0>         0.0727
     50 H21         1.7535    5.7833   10.1432 H         1 <0>         0.0721
     51 H22         3.9715    6.6659    8.2410 H         1 <0>         0.0626
     52 H23         4.1936    6.1729    9.9368 H         1 <0>         0.0728
     53 H24         4.6826    4.2953    8.3927 H         1 <0>         0.0746
     54 H25         3.2654    3.9352    9.4078 H         1 <0>         0.0710
     55 H26         2.8425    3.3277    7.0412 H         1 <0>         0.0812
     56 H27         3.1825    5.0044    6.5500 H         1 <0>         0.0611
     57 H28         1.8742    5.3629    4.8943 H         1 <0>         0.4643
@<TRIPOS>BOND
     1    1    2 1
     2    1   30 1
     3    1   31 1
     4    1   32 1
     5    2    6 1
     6    2    3 1
     7    3    4 2
     8    3   33 1
     9    4    5 1
    10    4   34 1
    11    5    6 2
    12    5   35 1
    13    6    7 1
    14    7    8 2
    15    7    9 am
    16    9   10 1
    17    9   36 1
    18   10   15 ar
    19   10   11 ar
    20   11   12 ar
    21   11   37 1
    22   12   13 ar
    23   12   38 1
    24   13   14 ar
    25   13   39 1
    26   14   15 ar
    27   14   16 1
    28   15   40 1
    29   16   21 1
    30   16   17 1
    31   16   24 1
    32   17   18 2
    33   17   19 am
    34   19   20 1
    35   19   23 1
    36   20   21 2
    37   20   22 1
    38   21   57 1
    39   22   41 1
    40   22   42 1
    41   23   43 1
    42   23   44 1
    43   23   45 1
    44   24   29 1
    45   24   25 1
    46   24   46 1
    47   25   26 1
    48   25   47 1
    49   25   48 1
    50   26   27 1
    51   26   49 1
    52   26   50 1
    53   27   28 1
    54   27   51 1
    55   27   52 1
    56   28   29 1
    57   28   53 1
    58   28   54 1
    59   29   55 1
    60   29   56 1
@<TRIPOS>MOLECULE
CHEMBL591070__2
   57    60     0     0     0
SMALL
USER_CHARGES

@<TRIPOS>ATOM
      1 C1          1.1794   -2.9935    1.4288 C.3       1 <0>         0.0623
      2 N1          0.7923   -1.8500    0.5990 N.pl3     1 <0>        -0.4061
      3 C2          0.8175   -1.8117   -0.7557 C.2       1 <0>         0.0331
      4 C3          0.3907   -0.5939   -1.1677 C.2       1 <0>        -0.2060
      5 C4          0.0861    0.1611   -0.0308 C.2       1 <0>        -0.1332
      6 C5          0.3367   -0.6375    1.0650 C.2       1 <0>        -0.0710
      7 C6          0.1542   -0.2624    2.4708 C.2       1 <0>         0.5974
      8 O1          0.4973   -1.0263    3.3540 O.2       1 <0>        -0.5188
      9 N2         -0.3934    0.9284    2.7849 N.am      1 <0>        -0.6620
     10 C7         -0.3988    1.3670    4.1127 C.ar      1 <0>         0.1647
     11 C8         -0.2917    0.4488    5.1496 C.ar      1 <0>        -0.1191
     12 C9         -0.2969    0.8853    6.4596 C.ar      1 <0>        -0.0847
     13 C10        -0.4090    2.2350    6.7400 C.ar      1 <0>        -0.1024
     14 C11        -0.5162    3.1515    5.7103 C.ar      1 <0>        -0.0961
     15 C12        -0.5055    2.7221    4.3975 C.ar      1 <0>        -0.1415
     16 C13        -0.6392    4.6211    6.0205 C.3       1 <0>         0.1824
     17 C14         0.7215    5.2838    5.9896 C.2       1 <0>         0.5381
     18 O2          1.6707    5.0244    6.6981 O.2       1 <0>        -0.3919
     19 N3          0.6710    6.2174    5.0208 N.am      1 <0>        -0.5557
     20 C15        -0.5622    6.2416    4.4164 C.cat     1 <0>         0.7248
     21 N4         -1.4043    5.3069    4.9665 N.pl3     1 <0>        -0.6589
     22 N5         -0.8904    7.0469    3.4475 N.pl3     1 <0>        -0.7362
     23 C16         1.7872    7.0942    4.6582 C.3       1 <0>         0.0554
     24 C17        -1.3050    4.8248    7.3829 C.3       1 <0>        -0.0850
     25 C18        -2.7018    4.2005    7.3662 C.3       1 <0>        -0.1146
     26 C19        -3.3677    4.4041    8.7286 C.3       1 <0>        -0.1215
     27 C20        -3.4817    5.9014    9.0218 C.3       1 <0>        -0.1238
     28 C21        -2.0850    6.5257    9.0384 C.3       1 <0>        -0.1189
     29 C22        -1.4191    6.3221    7.6761 C.3       1 <0>        -0.1210
     30 H1          0.2915   -3.5678    1.6932 H         1 <0>         0.0807
     31 H2          1.8704   -3.6279    0.8736 H         1 <0>         0.0903
     32 H3          1.6644   -2.6357    2.3370 H         1 <0>         0.1003
     33 H4          1.1277   -2.6200   -1.4013 H         1 <0>         0.1759
     34 H5          0.3019   -0.2645   -2.1924 H         1 <0>         0.1483
     35 H6         -0.2797    1.1771   -0.0143 H         1 <0>         0.1415
     36 H7         -0.7838    1.4811    2.0900 H         1 <0>         0.4148
     37 H8         -0.2049   -0.6053    4.9314 H         1 <0>         0.1730
     38 H9         -0.2137    0.1719    7.2662 H         1 <0>         0.1413
     39 H10        -0.4131    2.5738    7.7655 H         1 <0>         0.1363
     40 H11        -0.5847    3.4389    3.5936 H         1 <0>         0.1186
     41 H12        -0.2436    7.6842    3.1065 H         1 <0>         0.4483
     42 H13         2.3865    6.6176    3.8825 H         1 <0>         0.1018
     43 H14         1.3985    8.0421    4.2860 H         1 <0>         0.0995
     44 H15         2.4070    7.2754    5.5363 H         1 <0>         0.1198
     45 H16        -0.7031    4.3479    8.1564 H         1 <0>         0.1167
     46 H17        -3.3037    4.6774    6.5927 H         1 <0>         0.0621
     47 H18        -2.6206    3.1338    7.1573 H         1 <0>         0.0823
     48 H19        -4.3628    3.9594    8.7167 H         1 <0>         0.0739
     49 H20        -2.7658    3.9272    9.5021 H         1 <0>         0.0707
     50 H21        -4.0837    6.3783    8.2483 H         1 <0>         0.0622
     51 H22        -3.9561    6.0465    9.9924 H         1 <0>         0.0718
     52 H23        -2.1662    7.5924    9.2473 H         1 <0>         0.0714
     53 H24        -1.4830    6.0488    9.8120 H         1 <0>         0.0715
     54 H25        -0.4240    6.7668    7.6879 H         1 <0>         0.0603
     55 H26        -2.0210    6.7990    6.9025 H         1 <0>         0.0634
     56 H27        -2.3234    5.1323    4.7103 H         1 <0>         0.4625
     57 H28        -1.7817    7.0095    3.0667 H         1 <0>         0.4512
@<TRIPOS>BOND
     1    1    2 1
     2    1   30 1
     3    1   31 1
     4    1   32 1
     5    2    6 1
     6    2    3 1
     7    3    4 2
     8    3   33 1
     9    4    5 1
    10    4   34 1
    11    5    6 2
    12    5   35 1
    13    6    7 1
    14    7    8 2
    15    7    9 am
    16    9   10 1
    17    9   36 1
    18   10   15 ar
    19   10   11 ar
    20   11   12 ar
    21   11   37 1
    22   12   13 ar
    23   12   38 1
    24   13   14 ar
    25   13   39 1
    26   14   15 ar
    27   14   16 1
    28   15   40 1
    29   16   21 1
    30   16   17 1
    31   16   24 1
    32   17   18 2
    33   17   19 am
    34   19   20 1
    35   19   23 1
    36   20   21 1
    37   20   22 2
    38   21   56 1
    39   22   41 1
    40   22   57 1
    41   23   42 1
    42   23   43 1
    43   23   44 1
    44   24   29 1
    45   24   25 1
    46   24   45 1
    47   25   26 1
    48   25   46 1
    49   25   47 1
    50   26   27 1
    51   26   48 1
    52   26   49 1
    53   27   28 1
    54   27   50 1
    55   27   51 1
    56   28   29 1
    57   28   52 1
    58   28   53 1
    59   29   54 1
    60   29   55 1
@<TRIPOS>MOLECULE
CHEMBL591070__3
   57    60     0     0     0
SMALL
USER_CHARGES

@<TRIPOS>ATOM
      1 C1          1.1794   -2.9935    1.4288 C.3       1 <0>         0.0623
      2 N1          0.7923   -1.8500    0.5990 N.pl3     1 <0>        -0.4061
      3 C2          0.8175   -1.8117   -0.7557 C.2       1 <0>         0.0335
      4 C3          0.3907   -0.5939   -1.1677 C.2       1 <0>        -0.2059
      5 C4          0.0861    0.1611   -0.0308 C.2       1 <0>        -0.1327
      6 C5          0.3367   -0.6375    1.0650 C.2       1 <0>        -0.0716
      7 C6          0.1542   -0.2624    2.4708 C.2       1 <0>         0.5978
      8 O1          0.4973   -1.0263    3.3540 O.2       1 <0>        -0.5186
      9 N2         -0.3934    0.9284    2.7849 N.am      1 <0>        -0.6622
     10 C7         -0.3988    1.3670    4.1127 C.ar      1 <0>         0.1671
     11 C8         -0.2917    0.4488    5.1496 C.ar      1 <0>        -0.1175
     12 C9         -0.2969    0.8853    6.4596 C.ar      1 <0>        -0.0835
     13 C10        -0.4090    2.2350    6.7400 C.ar      1 <0>        -0.1007
     14 C11        -0.5162    3.1515    5.7103 C.ar      1 <0>        -0.0979
     15 C12        -0.5055    2.7221    4.3975 C.ar      1 <0>        -0.1435
     16 C13        -0.6392    4.6211    6.0205 C.3       1 <0>         0.1710
     17 C14         0.7210    5.2893    5.9782 C.2       1 <0>         0.5393
     18 O2          1.6841    5.0457    6.6733 O.2       1 <0>        -0.3861
     19 N3          0.6281    6.2137    4.9992 N.am      1 <0>        -0.5556
     20 C15        -0.6229    6.1962    4.4337 C.cat     1 <0>         0.7253
     21 N4         -1.4038    5.3088    4.9679 N.pl3     1 <0>        -0.6194
     22 N5         -1.0069    7.0303    3.4111 N.pl3     1 <0>        -0.7806
     23 C16         1.7126    7.1120    4.5955 C.3       1 <0>         0.0580
     24 C17        -1.2995    4.8268    7.3852 C.3       1 <0>        -0.0850
     25 C18        -2.6962    4.2023    7.3753 C.3       1 <0>        -0.1160
     26 C19        -3.3566    4.4080    8.7400 C.3       1 <0>        -0.1213
     27 C20        -3.4698    5.9058    9.0312 C.3       1 <0>        -0.1243
     28 C21        -2.0731    6.5303    9.0412 C.3       1 <0>        -0.1185
     29 C22        -1.4127    6.3246    7.6764 C.3       1 <0>        -0.1231
     30 H1          0.2915   -3.5678    1.6932 H         1 <0>         0.0808
     31 H2          1.8704   -3.6279    0.8736 H         1 <0>         0.0904
     32 H3          1.6644   -2.6357    2.3370 H         1 <0>         0.1003
     33 H4          1.1277   -2.6200   -1.4013 H         1 <0>         0.1761
     34 H5          0.3019   -0.2645   -2.1924 H         1 <0>         0.1484
     35 H6         -0.2797    1.1771   -0.0143 H         1 <0>         0.1416
     36 H7         -0.7838    1.4811    2.0900 H         1 <0>         0.4151
     37 H8         -0.2049   -0.6053    4.9314 H         1 <0>         0.1740
     38 H9         -0.2137    0.1719    7.2662 H         1 <0>         0.1426
     39 H10        -0.4131    2.5738    7.7655 H         1 <0>         0.1374
     40 H11        -0.5847    3.4389    3.5936 H         1 <0>         0.1184
     41 H12        -0.3794    7.6759    3.0501 H         1 <0>         0.4438
     42 H13        -1.9055    6.9734    3.0503 H         1 <0>         0.4456
     43 H14         2.3016    6.6401    3.8090 H         1 <0>         0.1009
     44 H15         1.2914    8.0459    4.2232 H         1 <0>         0.1004
     45 H16         2.3519    7.3185    5.4539 H         1 <0>         0.1182
     46 H17        -0.6944    4.3513    8.1571 H         1 <0>         0.1206
     47 H18        -3.3014    4.6778    6.6034 H         1 <0>         0.0618
     48 H19        -2.6156    3.1352    7.1678 H         1 <0>         0.0838
     49 H20        -4.3516    3.9630    8.7329 H         1 <0>         0.0749
     50 H21        -2.7514    3.9325    9.5119 H         1 <0>         0.0716
     51 H22        -4.0749    6.3813    8.2594 H         1 <0>         0.0625
     52 H23        -3.9402    6.0523   10.0035 H         1 <0>         0.0727
     53 H24        -2.1537    7.5974    9.2486 H         1 <0>         0.0725
     54 H25        -1.4679    6.0548    9.8130 H         1 <0>         0.0724
     55 H26        -0.4177    6.7696    7.6835 H         1 <0>         0.0624
     56 H27        -2.0179    6.8001    6.9046 H         1 <0>         0.0630
     57 H28        -2.3241    5.1306    4.7186 H         1 <0>         0.4641
@<TRIPOS>BOND
     1    1    2 1
     2    1   30 1
     3    1   31 1
     4    1   32 1
     5    2    6 1
     6    2    3 1
     7    3    4 2
     8    3   33 1
     9    4    5 1
    10    4   34 1
    11    5    6 2
    12    5   35 1
    13    6    7 1
    14    7    8 2
    15    7    9 am
    16    9   10 1
    17    9   36 1
    18   10   15 ar
    19   10   11 ar
    20   11   12 ar
    21   11   37 1
    22   12   13 ar
    23   12   38 1
    24   13   14 ar
    25   13   39 1
    26   14   15 ar
    27   14   16 1
    28   15   40 1
    29   16   21 1
    30   16   17 1
    31   16   24 1
    32   17   18 2
    33   17   19 am
    34   19   20 1
    35   19   23 1
    36   20   21 2
    37   20   22 1
    38   21   57 1
    39   22   41 1
    40   22   42 1
    41   23   43 1
    42   23   44 1
    43   23   45 1
    44   24   29 1
    45   24   25 1
    46   24   46 1
    47   25   26 1
    48   25   47 1
    49   25   48 1
    50   26   27 1
    51   26   49 1
    52   26   50 1
    53   27   28 1
    54   27   51 1
    55   27   52 1
    56   28   29 1
    57   28   53 1
    58   28   54 1
    59   29   55 1
    60   29   56 1
@<TRIPOS>MOLECULE
CHEMBL220745
   61    66     0     0     0
SMALL
USER_CHARGES

@<TRIPOS>ATOM
      1 C1         -0.0173    1.4248    0.0099 C.3       1 <0>         0.0227
      2 O1          0.0021   -0.0041    0.0020 O.3       1 <0>        -0.3101
      3 C2          0.6252   -0.6177    1.0404 C.ar      1 <0>         0.1590
      4 C3          1.2016    0.1435    2.0502 C.ar      1 <0>        -0.2138
      5 C4          1.8347   -0.4750    3.1055 C.ar      1 <0>        -0.0318
      6 C5          1.8965   -1.8703    3.1601 C.ar      1 <0>        -0.1170
      7 C6          1.3151   -2.6320    2.1425 C.ar      1 <0>        -0.0362
      8 C7          0.6798   -2.0054    1.0934 C.ar      1 <0>        -0.1540
      9 C8          2.5740   -2.5370    4.2881 C.2       1 <0>         0.2181
     10 C9          2.6231   -3.8963    4.3112 C.2       1 <0>        -0.3204
     11 C10         3.2694   -4.5524    5.3854 C.2       1 <0>         0.4245
     12 O2          3.3328   -5.7700    5.4386 O.2       1 <0>        -0.4546
     13 C11         3.8630   -3.7084    6.4367 C.ar      1 <0>        -0.2630
     14 C12         4.5225   -4.2740    7.5364 C.ar      1 <0>         0.2257
     15 C13         5.0693   -3.4527    8.5060 C.ar      1 <0>        -0.2041
     16 C14         4.9670   -2.0726    8.3941 C.ar      1 <0>         0.2024
     17 C15         4.3117   -1.4961    7.3028 C.ar      1 <0>        -0.1119
     18 C16         3.7556   -2.3143    6.3157 C.ar      1 <0>         0.2041
     19 O3          3.1237   -1.7796    5.2505 O.3       1 <0>        -0.2112
     20 C17         4.2068   -0.0215    7.1925 C.ar      1 <0>        -0.0656
     21 C18         5.1916    0.6990    6.5279 C.ar      1 <0>        -0.0463
     22 C19         5.0860    2.0871    6.4275 C.ar      1 <0>        -0.0821
     23 C20         3.9912    2.7464    6.9952 C.ar      1 <0>        -0.0555
     24 C21         3.0162    2.0288    7.6537 C.ar      1 <0>        -0.1448
     25 C22         3.1118    0.6481    7.7529 C.ar      1 <0>         0.1647
     26 O4          2.1453   -0.0539    8.3979 O.3       1 <0>        -0.4894
     27 C23         6.1285    2.8580    5.7237 C.2       1 <0>         0.2092
     28 C24         6.0020    4.2100    5.6462 C.2       1 <0>        -0.3100
     29 C25         6.9922    4.9659    4.9750 C.2       1 <0>         0.4225
     30 O5          6.9112    6.1805    4.8866 O.2       1 <0>        -0.4528
     31 C26         8.1245    4.2299    4.3877 C.ar      1 <0>        -0.2658
     32 C27         9.1503    4.8969    3.7060 C.ar      1 <0>         0.2196
     33 C28        10.1963    4.1694    3.1694 C.ar      1 <0>        -0.2048
     34 C29        10.2278    2.7858    3.3065 C.ar      1 <0>         0.1929
     35 C30         9.2157    2.1193    3.9795 C.ar      1 <0>        -0.1835
     36 C31         8.1588    2.8316    4.5249 C.ar      1 <0>         0.1831
     37 O6          7.1684    2.1987    5.1887 O.3       1 <0>        -0.2188
     38 O7         11.2595    2.0811    2.7757 O.3       1 <0>        -0.4870
     39 O8          9.1174    6.2471    3.5730 O.3       1 <0>        -0.4722
     40 O9          5.5073   -1.2774    9.3521 O.3       1 <0>        -0.4825
     41 O10         4.6238   -5.6224    7.6500 O.3       1 <0>        -0.4710
     42 H1          1.0053    1.8021    0.0021 H         1 <0>         0.0599
     43 H2         -0.5445    1.7859   -0.8732 H         1 <0>         0.1057
     44 H3         -0.5275    1.7763    0.9067 H         1 <0>         0.0601
     45 H4          1.1533    1.2215    2.0072 H         1 <0>         0.1377
     46 H5          2.2829    0.1173    3.8895 H         1 <0>         0.1359
     47 H6          1.3610   -3.7103    2.1807 H         1 <0>         0.1442
     48 H7          0.2270   -2.5932    0.3087 H         1 <0>         0.1439
     49 H8          2.1718   -4.4705    3.5156 H         1 <0>         0.1637
     50 H9          5.5778   -3.8871    9.3540 H         1 <0>         0.1528
     51 H10         6.0360    0.1867    6.0909 H         1 <0>         0.1392
     52 H11         3.9098    3.8205    6.9178 H         1 <0>         0.1430
     53 H12         2.1725    2.5425    8.0906 H         1 <0>         0.1449
     54 H13         2.3079   -0.1689    9.3441 H         1 <0>         0.3999
     55 H14         5.1517    4.7032    6.0936 H         1 <0>         0.1640
     56 H15        10.9906    4.6768    2.6421 H         1 <0>         0.1503
     57 H16         9.2506    1.0445    4.0791 H         1 <0>         0.1526
     58 H17        12.0060    1.9621    3.3787 H         1 <0>         0.4039
     59 H18         9.5553    6.7239    4.2913 H         1 <0>         0.4033
     60 H19         6.4258   -1.0267    9.1832 H         1 <0>         0.4026
     61 H20         5.4150   -5.9936    7.2361 H         1 <0>         0.4041
@<TRIPOS>BOND
     1    1    2 1
     2    1   42 1
     3    1   43 1
     4    1   44 1
     5    2    3 1
     6    3    8 ar
     7    3    4 ar
     8    4    5 ar
     9    4   45 1
    10    5    6 ar
    11    5   46 1
    12    6    7 ar
    13    6    9 1
    14    7    8 ar
    15    7   47 1
    16    8   48 1
    17    9   19 1
    18    9   10 2
    19   10   11 1
    20   10   49 1
    21   11   12 2
    22   11   13 1
    23   13   18 ar
    24   13   14 ar
    25   14   15 ar
    26   14   41 1
    27   15   16 ar
    28   15   50 1
    29   16   17 ar
    30   16   40 1
    31   17   18 ar
    32   17   20 1
    33   18   19 1
    34   20   25 ar
    35   20   21 ar
    36   21   22 ar
    37   21   51 1
    38   22   23 ar
    39   22   27 1
    40   23   24 ar
    41   23   52 1
    42   24   25 ar
    43   24   53 1
    44   25   26 1
    45   26   54 1
    46   27   37 1
    47   27   28 2
    48   28   29 1
    49   28   55 1
    50   29   30 2
    51   29   31 1
    52   31   36 ar
    53   31   32 ar
    54   32   33 ar
    55   32   39 1
    56   33   34 ar
    57   33   56 1
    58   34   35 ar
    59   34   38 1
    60   35   36 ar
    61   35   57 1
    62   36   37 1
    63   38   58 1
    64   39   59 1
    65   40   60 1
    66   41   61 1
@<TRIPOS>MOLECULE
CHEMBL208903
   77    82     0     0     0
SMALL
USER_CHARGES

@<TRIPOS>ATOM
      1 C1         -0.0523    1.3535    0.0265 C.ar      1 <0>        -0.1078
      2 C2          1.1291    2.0723   -0.0065 C.ar      1 <0>        -0.1190
      3 C3          2.3408    1.4123   -0.0353 C.ar      1 <0>        -0.1046
      4 C4          2.3727    0.0191   -0.0310 C.ar      1 <0>        -0.0629
      5 C5          1.1794   -0.7000    0.0023 C.ar      1 <0>        -0.1007
      6 C6         -0.0266   -0.0295    0.0309 C.ar      1 <0>        -0.1174
      7 C7          3.6721   -0.6959   -0.0623 C.ar      1 <0>        -0.0042
      8 C8          4.8646    0.0254   -0.0903 C.ar      1 <0>        -0.1203
      9 C9          6.0738   -0.6384   -0.1194 C.ar      1 <0>        -0.0951
     10 C10         6.1068   -2.0262   -0.1205 C.ar      1 <0>         0.1128
     11 C11         4.9158   -2.7535   -0.0926 C.ar      1 <0>         0.1559
     12 C12         3.7016   -2.0892   -0.0580 C.ar      1 <0>        -0.1098
     13 N1          4.9491   -4.1539   -0.0942 N.am      1 <0>        -0.6649
     14 C13         4.0235   -4.8508    0.5943 C.2       1 <0>         0.5649
     15 O1          3.1134   -4.2674    1.1517 O.2       1 <0>        -0.5034
     16 C14         4.1141   -6.3202    0.6717 C.ar      1 <0>        -0.1325
     17 C15         5.2116   -6.9843    0.1433 C.ar      1 <0>        -0.0701
     18 C16         5.3025   -8.3686    0.2127 C.ar      1 <0>        -0.1394
     19 C17         4.3218   -9.1116    0.7989 C.ar      1 <0>        -0.0595
     20 C18         3.1919   -8.4811    1.3480 C.ar      1 <0>        -0.0610
     21 C19         3.0837   -7.0703    1.2922 C.ar      1 <0>        -0.0092
     22 C20         1.9592   -6.4425    1.8445 C.ar      1 <0>        -0.1234
     23 C21         0.9874   -7.1947    2.4331 C.ar      1 <0>        -0.1042
     24 C22         1.0948   -8.5821    2.4949 C.ar      1 <0>        -0.1087
     25 C23         2.1671   -9.2260    1.9572 C.ar      1 <0>        -0.1075
     26 N2          7.3335   -2.6956   -0.1500 N.pl3     1 <0>        -0.6714
     27 C24         7.9700   -3.0522   -1.4274 C.3       1 <0>         0.1143
     28 C25         9.4237   -2.5688   -1.3973 C.3       1 <0>        -0.0218
     29 N3         10.0959   -3.1155   -0.2118 N.4       1 <0>        -0.3803
     30 C26         9.4759   -2.5792    1.0064 C.3       1 <0>        -0.0271
     31 C27         8.0275   -3.0581    1.0953 C.3       1 <0>         0.1198
     32 C28        11.5165   -2.7427   -0.2410 C.3       1 <0>        -0.0072
     33 C29        12.2441   -3.4142    0.9254 C.3       1 <0>        -0.1790
     34 C30        13.7237   -3.0260    0.8950 C.3       1 <0>         0.1602
     35 H1         14.1442   -3.2732   -0.0798 H         1 <0>         0.1171
     36 C31        14.4637   -3.7825    1.9679 C.ar      1 <0>        -0.1351
     37 C32        14.4079   -3.3524    3.2804 C.ar      1 <0>        -0.1122
     38 C33        15.0867   -4.0463    4.2646 C.ar      1 <0>        -0.1131
     39 C34        15.8209   -5.1706    3.9363 C.ar      1 <0>        -0.1074
     40 C35        15.8760   -5.6012    2.6238 C.ar      1 <0>        -0.1133
     41 C36        15.1937   -4.9097    1.6403 C.ar      1 <0>        -0.1070
     42 O2         13.8525   -1.6218    1.1271 O.3       1 <0>        -0.5493
     43 H2         -0.9982    1.8741    0.0534 H         1 <0>         0.1267
     44 H3          1.1031    3.1520   -0.0102 H         1 <0>         0.1274
     45 H4          3.2626    1.9745   -0.0614 H         1 <0>         0.1252
     46 H5          1.1983   -1.7798    0.0054 H         1 <0>         0.1264
     47 H6         -0.9520   -0.5857    0.0571 H         1 <0>         0.1274
     48 H7          4.8420    1.1052   -0.0895 H         1 <0>         0.1326
     49 H8          6.9963   -0.0772   -0.1418 H         1 <0>         0.1264
     50 H9          2.7788   -2.6497   -0.0322 H         1 <0>         0.1500
     51 H10         5.6384   -4.6220   -0.5908 H         1 <0>         0.4068
     52 H11         6.0029   -6.4194   -0.3271 H         1 <0>         0.1184
     53 H12         6.1657   -8.8650   -0.2055 H         1 <0>         0.1312
     54 H13         4.4128  -10.1869    0.8412 H         1 <0>         0.1356
     55 H14         1.8634   -5.3675    1.8041 H         1 <0>         0.1672
     56 H15         0.1217   -6.7083    2.8579 H         1 <0>         0.1282
     57 H16         0.3114   -9.1561    2.9675 H         1 <0>         0.1287
     58 H17         2.2368  -10.3024    2.0109 H         1 <0>         0.1326
     59 H18         7.9464   -4.1339   -1.5591 H         1 <0>         0.0757
     60 H19         7.4402   -2.5687   -2.2482 H         1 <0>         0.1191
     61 H20         9.9384   -2.9086   -2.2960 H         1 <0>         0.1371
     62 H21         9.4438   -1.4797   -1.3566 H         1 <0>         0.1325
     63 H22        10.0291   -2.9268    1.8790 H         1 <0>         0.1357
     64 H23         9.4944   -1.4899    0.9744 H         1 <0>         0.1325
     65 H24         7.5357   -2.5786    1.9417 H         1 <0>         0.1167
     66 H25         8.0098   -4.1405    1.2228 H         1 <0>         0.0756
     67 H26        11.9587   -3.0701   -1.1820 H         1 <0>         0.1328
     68 H27        11.6100   -1.6603   -0.1528 H         1 <0>         0.1363
     69 H28        11.8018   -3.0869    1.8663 H         1 <0>         0.0919
     70 H29        12.1506   -4.4966    0.8372 H         1 <0>         0.0992
     71 H30        13.8343   -2.4740    3.5369 H         1 <0>         0.1188
     72 H31        15.0437   -3.7099    5.2899 H         1 <0>         0.1282
     73 H32        16.3519   -5.7123    4.7050 H         1 <0>         0.1288
     74 H33        16.4499   -6.4794    2.3673 H         1 <0>         0.1290
     75 H34        15.2336   -5.2483    0.6156 H         1 <0>         0.1246
     76 H35        13.4983   -1.3297    1.9781 H         1 <0>         0.3794
     77 H36        10.0145   -4.1212   -0.2144 H         1 <0>         0.4201
@<TRIPOS>BOND
     1    1    6 ar
     2    1    2 ar
     3    1   43 1
     4    2    3 ar
     5    2   44 1
     6    3    4 ar
     7    3   45 1
     8    4    5 ar
     9    4    7 1
    10    5    6 ar
    11    5   46 1
    12    6   47 1
    13    7   12 ar
    14    7    8 ar
    15    8    9 ar
    16    8   48 1
    17    9   10 ar
    18    9   49 1
    19   10   11 ar
    20   10   26 1
    21   11   12 ar
    22   11   13 1
    23   12   50 1
    24   13   14 am
    25   13   51 1
    26   14   15 2
    27   14   16 1
    28   16   21 ar
    29   16   17 ar
    30   17   18 ar
    31   17   52 1
    32   18   19 ar
    33   18   53 1
    34   19   20 ar
    35   19   54 1
    36   20   25 ar
    37   20   21 ar
    38   21   22 ar
    39   22   23 ar
    40   22   55 1
    41   23   24 ar
    42   23   56 1
    43   24   25 ar
    44   24   57 1
    45   25   58 1
    46   26   31 1
    47   26   27 1
    48   27   28 1
    49   27   59 1
    50   27   60 1
    51   28   29 1
    52   28   61 1
    53   28   62 1
    54   29   30 1
    55   29   32 1
    56   29   77 1
    57   30   31 1
    58   30   63 1
    59   30   64 1
    60   31   65 1
    61   31   66 1
    62   32   33 1
    63   32   67 1
    64   32   68 1
    65   33   34 1
    66   33   69 1
    67   33   70 1
    68   34   35 1
    69   34   36 1
    70   34   42 1
    71   36   41 ar
    72   36   37 ar
    73   37   38 ar
    74   37   71 1
    75   38   39 ar
    76   38   72 1
    77   39   40 ar
    78   39   73 1
    79   40   41 ar
    80   40   74 1
    81   41   75 1
    82   42   76 1
@<TRIPOS>MOLECULE
CHEMBL208903__1
   76    81     0     0     0
SMALL
USER_CHARGES

@<TRIPOS>ATOM
      1 C1         -0.0523    1.3535    0.0265 C.ar      1 <0>        -0.1181
      2 C2          1.1291    2.0723   -0.0065 C.ar      1 <0>        -0.1193
      3 C3          2.3408    1.4123   -0.0353 C.ar      1 <0>        -0.1099
      4 C4          2.3727    0.0191   -0.0310 C.ar      1 <0>        -0.0453
      5 C5          1.1794   -0.7000    0.0023 C.ar      1 <0>        -0.1059
      6 C6         -0.0266   -0.0295    0.0309 C.ar      1 <0>        -0.1179
      7 C7          3.6721   -0.6959   -0.0623 C.ar      1 <0>        -0.0306
      8 C8          4.8646    0.0254   -0.0903 C.ar      1 <0>        -0.1168
      9 C9          6.0738   -0.6384   -0.1194 C.ar      1 <0>        -0.1041
     10 C10         6.1068   -2.0262   -0.1205 C.ar      1 <0>         0.1489
     11 C11         4.9158   -2.7535   -0.0926 C.ar      1 <0>         0.1414
     12 C12         3.7016   -2.0892   -0.0580 C.ar      1 <0>        -0.1059
     13 N1          4.9491   -4.1539   -0.0942 N.am      1 <0>        -0.6572
     14 C13         4.0235   -4.8508    0.5943 C.2       1 <0>         0.5647
     15 O1          3.1134   -4.2674    1.1517 O.2       1 <0>        -0.5139
     16 C14         4.1141   -6.3202    0.6717 C.ar      1 <0>        -0.1294
     17 C15         5.2116   -6.9843    0.1433 C.ar      1 <0>        -0.0665
     18 C16         5.3025   -8.3686    0.2127 C.ar      1 <0>        -0.1317
     19 C17         4.3218   -9.1116    0.7989 C.ar      1 <0>        -0.0685
     20 C18         3.1919   -8.4811    1.3480 C.ar      1 <0>        -0.0612
     21 C19         3.0837   -7.0703    1.2922 C.ar      1 <0>        -0.0101
     22 C20         1.9592   -6.4425    1.8445 C.ar      1 <0>        -0.1179
     23 C21         0.9874   -7.1947    2.4331 C.ar      1 <0>        -0.1123
     24 C22         1.0948   -8.5821    2.4949 C.ar      1 <0>        -0.1126
     25 C23         2.1671   -9.2260    1.9572 C.ar      1 <0>        -0.1095
     26 N2          7.3335   -2.6956   -0.1500 N.pl3     1 <0>        -0.6766
     27 C24         7.9687   -3.0515   -1.4280 C.3       1 <0>         0.1465
     28 C25         9.4172   -2.5520   -1.4073 C.3       1 <0>         0.0414
     29 N3         10.0939   -3.0713   -0.2114 N.3       1 <0>        -0.5346
     30 C26         9.4696   -2.5628    1.0172 C.3       1 <0>         0.0383
     31 C27         8.0262   -3.0574    1.0959 C.3       1 <0>         0.1517
     32 C28        11.5290   -2.7587   -0.2411 C.3       1 <0>         0.0592
     33 C29        12.2401   -3.5201    0.8794 C.3       1 <0>        -0.1408
     34 C30        13.7347   -3.1945    0.8486 C.3       1 <0>         0.1485
     35 H1         14.1328   -3.4088   -0.1432 H         1 <0>         0.1076
     36 C31        14.4534   -4.0364    1.8712 C.ar      1 <0>        -0.1156
     37 C32        14.4315   -3.6726    3.2046 C.ar      1 <0>        -0.1131
     38 C33        15.0908   -4.4449    4.1426 C.ar      1 <0>        -0.1162
     39 C34        15.7716   -5.5811    3.7473 C.ar      1 <0>        -0.1194
     40 C35        15.7928   -5.9453    2.4139 C.ar      1 <0>        -0.1167
     41 C36        15.1299   -5.1754    1.4765 C.ar      1 <0>        -0.1098
     42 O2         13.9271   -1.8110    1.1503 O.3       1 <0>        -0.5538
     43 H2         -0.9982    1.8741    0.0534 H         1 <0>         0.1225
     44 H3          1.1031    3.1520   -0.0102 H         1 <0>         0.1240
     45 H4          3.2626    1.9745   -0.0614 H         1 <0>         0.1250
     46 H5          1.1983   -1.7798    0.0054 H         1 <0>         0.1265
     47 H6         -0.9520   -0.5857    0.0571 H         1 <0>         0.1240
     48 H7          4.8420    1.1052   -0.0895 H         1 <0>         0.1270
     49 H8          6.9963   -0.0772   -0.1418 H         1 <0>         0.1257
     50 H9          2.7788   -2.6497   -0.0322 H         1 <0>         0.1457
     51 H10         5.6384   -4.6220   -0.5908 H         1 <0>         0.4111
     52 H11         6.0029   -6.4194   -0.3271 H         1 <0>         0.1260
     53 H12         6.1657   -8.8650   -0.2055 H         1 <0>         0.1323
     54 H13         4.4128  -10.1869    0.8412 H         1 <0>         0.1332
     55 H14         1.8634   -5.3675    1.8041 H         1 <0>         0.1683
     56 H15         0.1217   -6.7083    2.8579 H         1 <0>         0.1251
     57 H16         0.3114   -9.1561    2.9675 H         1 <0>         0.1247
     58 H17         2.2368  -10.3024    2.0109 H         1 <0>         0.1295
     59 H18         7.9565   -4.1341   -1.5539 H         1 <0>         0.0565
     60 H19         7.4299   -2.5784   -2.2489 H         1 <0>         0.0739
     61 H20         9.9356   -2.9026   -2.2998 H         1 <0>         0.0805
     62 H21         9.4258   -1.4622   -1.3857 H         1 <0>         0.0369
     63 H22        10.0261   -2.9214    1.8832 H         1 <0>         0.0810
     64 H23         9.4776   -1.4729    1.0051 H         1 <0>         0.0358
     65 H24         7.5254   -2.5883    1.9428 H         1 <0>         0.0710
     66 H25         8.0196   -4.1406    1.2172 H         1 <0>         0.0559
     67 H26        11.9457   -3.0557   -1.2035 H         1 <0>         0.0748
     68 H27        11.6704   -1.6873   -0.0989 H         1 <0>         0.0414
     69 H28        11.8233   -3.2231    1.8418 H         1 <0>         0.0675
     70 H29        12.0986   -4.5915    0.7373 H         1 <0>         0.0828
     71 H30        13.8996   -2.7849    3.5135 H         1 <0>         0.1181
     72 H31        15.0743   -4.1603    5.1843 H         1 <0>         0.1233
     73 H32        16.2873   -6.1840    4.4800 H         1 <0>         0.1230
     74 H33        16.3250   -6.8329    2.1050 H         1 <0>         0.1240
     75 H34        15.1433   -5.4621    0.4353 H         1 <0>         0.1234
     76 H35        13.5958   -1.5483    2.0200 H         1 <0>         0.3729
@<TRIPOS>BOND
     1    1    6 ar
     2    1    2 ar
     3    1   43 1
     4    2    3 ar
     5    2   44 1
     6    3    4 ar
     7    3   45 1
     8    4    5 ar
     9    4    7 1
    10    5    6 ar
    11    5   46 1
    12    6   47 1
    13    7   12 ar
    14    7    8 ar
    15    8    9 ar
    16    8   48 1
    17    9   10 ar
    18    9   49 1
    19   10   11 ar
    20   10   26 1
    21   11   12 ar
    22   11   13 1
    23   12   50 1
    24   13   14 am
    25   13   51 1
    26   14   15 2
    27   14   16 1
    28   16   21 ar
    29   16   17 ar
    30   17   18 ar
    31   17   52 1
    32   18   19 ar
    33   18   53 1
    34   19   20 ar
    35   19   54 1
    36   20   25 ar
    37   20   21 ar
    38   21   22 ar
    39   22   23 ar
    40   22   55 1
    41   23   24 ar
    42   23   56 1
    43   24   25 ar
    44   24   57 1
    45   25   58 1
    46   26   31 1
    47   26   27 1
    48   27   28 1
    49   27   59 1
    50   27   60 1
    51   28   29 1
    52   28   61 1
    53   28   62 1
    54   29   30 1
    55   29   32 1
    56   30   31 1
    57   30   63 1
    58   30   64 1
    59   31   65 1
    60   31   66 1
    61   32   33 1
    62   32   67 1
    63   32   68 1
    64   33   34 1
    65   33   69 1
    66   33   70 1
    67   34   35 1
    68   34   36 1
    69   34   42 1
    70   36   41 ar
    71   36   37 ar
    72   37   38 ar
    73   37   71 1
    74   38   39 ar
    75   38   72 1
    76   39   40 ar
    77   39   73 1
    78   40   41 ar
    79   40   74 1
    80   41   75 1
    81   42   76 1
@<TRIPOS>MOLECULE
CHEMBL126079
   51    54     0     0     0
SMALL
USER_CHARGES

@<TRIPOS>ATOM
      1 C1         -0.0167    1.3824    0.0096 C.ar      1 <0>        -0.1116
      2 C2          1.1697    2.0917    0.0021 C.ar      1 <0>        -0.0692
      3 C3          2.3792    1.4226   -0.0135 C.ar      1 <0>        -0.1120
      4 C4          2.4066    0.0362   -0.0217 C.ar      1 <0>         0.0966
      5 C5          1.2160   -0.6806   -0.0137 C.ar      1 <0>         0.0654
      6 C6          0.0021   -0.0041    0.0020 C.ar      1 <0>         0.0997
      7 O1         -1.1658   -0.7009    0.0099 O.3       1 <0>        -0.4870
      8 O2          1.2387   -2.0413   -0.0217 O.3       1 <0>        -0.4795
      9 O3          3.5971   -0.6212   -0.0380 O.3       1 <0>        -0.4826
     10 C7          1.1446    3.5984    0.0105 C.3       1 <0>         0.1465
     11 H1          0.2126    3.9475    0.4550 H         1 <0>         0.1019
     12 C8          1.2611    4.1251   -1.4256 C.3       1 <0>         0.0646
     13 H2          2.2329    3.8544   -1.8385 H         1 <0>         0.1051
     14 C9          1.1215    5.6490   -1.3913 C.3       1 <0>        -0.0891
     15 C10         2.0188    6.2172   -0.3211 C.ar      1 <0>        -0.1914
     16 C11         2.3348    7.5707   -0.3637 C.ar      1 <0>         0.1641
     17 C12         3.1528    8.1277    0.6053 C.ar      1 <0>        -0.1972
     18 C13         3.6589    7.3321    1.6225 C.ar      1 <0>         0.1602
     19 C14         3.3464    5.9836    1.6646 C.ar      1 <0>        -0.1778
     20 C15         2.5265    5.4225    0.6909 C.ar      1 <0>         0.1595
     21 O4          2.2521    4.0938    0.7639 O.3       1 <0>        -0.2903
     22 O5          4.4606    7.8750    2.5761 O.3       1 <0>        -0.4908
     23 O6          1.8385    8.3503   -1.3601 O.3       1 <0>        -0.4898
     24 O7          0.2224    3.5634   -2.2304 O.3       1 <0>        -0.3294
     25 C16         0.4902    3.3873   -3.5393 C.2       1 <0>         0.5134
     26 O8          1.5758    3.7020   -3.9850 O.2       1 <0>        -0.4864
     27 C17        -0.5345    2.8126   -4.4307 C.ar      1 <0>        -0.1019
     28 C18        -1.7857    2.4554   -3.9205 C.ar      1 <0>        -0.0815
     29 C19        -2.7441    1.9170   -4.7582 C.ar      1 <0>         0.0862
     30 C20        -2.4639    1.7298   -6.1092 C.ar      1 <0>         0.0957
     31 C21        -1.2180    2.0843   -6.6202 C.ar      1 <0>         0.0894
     32 C22        -0.2582    2.6293   -5.7884 C.ar      1 <0>        -0.0729
     33 O9         -0.9475    1.8997   -7.9402 O.3       1 <0>        -0.4773
     34 O10        -3.4078    1.1998   -6.9305 O.3       1 <0>        -0.4722
     35 O11        -3.9618    1.5692   -4.2623 O.3       1 <0>        -0.4782
     36 H3         -0.9596    1.9089    0.0260 H         1 <0>         0.1418
     37 H4          3.3040    1.9803   -0.0197 H         1 <0>         0.1417
     38 H5         -1.5123   -0.8977   -0.8712 H         1 <0>         0.3976
     39 H6          1.2542   -2.4396    0.8593 H         1 <0>         0.3916
     40 H7          3.9506   -0.8164    0.8407 H         1 <0>         0.3916
     41 H8          1.4057    6.0611   -2.3595 H         1 <0>         0.0998
     42 H9          0.0865    5.9136   -1.1749 H         1 <0>         0.0918
     43 H10         3.3957    9.1794    0.5691 H         1 <0>         0.1412
     44 H11         3.7408    5.3648    2.4571 H         1 <0>         0.1438
     45 H12         3.9828    8.2123    3.3462 H         1 <0>         0.3977
     46 H13         0.9859    8.7570   -1.1536 H         1 <0>         0.3954
     47 H14        -2.0033    2.5997   -2.8725 H         1 <0>         0.1530
     48 H15         0.7063    2.9086   -6.1862 H         1 <0>         0.1540
     49 H16        -1.1721    2.6574   -8.4974 H         1 <0>         0.3936
     50 H17        -3.9840    1.8575   -7.3434 H         1 <0>         0.3923
     51 H18        -4.6168    2.2798   -4.2938 H         1 <0>         0.3929
@<TRIPOS>BOND
     1    1    6 ar
     2    1    2 ar
     3    1   36 1
     4    2    3 ar
     5    2   10 1
     6    3    4 ar
     7    3   37 1
     8    4    5 ar
     9    4    9 1
    10    5    6 ar
    11    5    8 1
    12    6    7 1
    13    7   38 1
    14    8   39 1
    15    9   40 1
    16   10   11 1
    17   10   21 1
    18   10   12 1
    19   12   13 1
    20   12   14 1
    21   12   24 1
    22   14   15 1
    23   14   41 1
    24   14   42 1
    25   15   20 ar
    26   15   16 ar
    27   16   17 ar
    28   16   23 1
    29   17   18 ar
    30   17   43 1
    31   18   19 ar
    32   18   22 1
    33   19   20 ar
    34   19   44 1
    35   20   21 1
    36   22   45 1
    37   23   46 1
    38   24   25 1
    39   25   26 2
    40   25   27 1
    41   27   32 ar
    42   27   28 ar
    43   28   29 ar
    44   28   47 1
    45   29   30 ar
    46   29   35 1
    47   30   31 ar
    48   30   34 1
    49   31   32 ar
    50   31   33 1
    51   32   48 1
    52   33   49 1
    53   34   50 1
    54   35   51 1
@<TRIPOS>MOLECULE
CHEMBL1162068
   70    73     0     0     0
SMALL
USER_CHARGES

@<TRIPOS>ATOM
      1 C1         -0.0014    1.4752   -2.6684 C.3       1 <0>        -0.1537
      2 C2          0.0193    0.0220   -2.1902 C.3       1 <0>        -0.1458
      3 C3          0.7167   -0.8494   -3.2367 C.3       1 <0>         0.0949
      4 N1          0.7365   -2.2409   -2.7788 N.pl3     1 <0>        -0.9383
      5 C4         -0.3627   -3.0701   -3.0160 C.ar      1 <0>         0.1882
      6 C5         -0.6020   -4.1567   -2.1866 C.ar      1 <0>        -0.1168
      7 C6         -1.6988   -4.9862   -2.4203 C.ar      1 <0>        -0.0095
      8 C7         -2.5546   -4.7230   -3.4880 C.ar      1 <0>        -0.0980
      9 C8         -2.3117   -3.6313   -4.3190 C.ar      1 <0>        -0.0214
     10 C9         -1.2157   -2.8022   -4.0766 C.ar      1 <0>        -0.0909
     11 C10        -3.2171   -3.3486   -5.4535 C.2       1 <0>         0.2714
     12 N2         -3.1036   -2.3637   -6.3132 N.2       1 <0>        -0.2629
     13 N3         -4.0677   -2.4290   -7.1628 N.2       1 <0>        -0.2099
     14 C11        -4.8283   -3.4498   -6.8811 C.2       1 <0>         0.0854
     15 O1         -4.3095   -4.0581   -5.8006 O.3       1 <0>        -0.2289
     16 C12        -6.0632   -3.8739   -7.6337 C.3       1 <0>         0.1970
     17 C13        -7.0911   -2.7410   -7.6066 C.3       1 <0>        -0.1811
     18 C14        -5.6926   -4.1917   -9.0837 C.3       1 <0>        -0.0911
     19 C15        -6.9275   -4.6158   -9.8363 C.ar      1 <0>        -0.1311
     20 C16        -7.2901   -5.9492   -9.8741 C.ar      1 <0>        -0.1414
     21 C17        -8.4228   -6.3382  -10.5645 C.ar      1 <0>        -0.1060
     22 C18        -9.1931   -5.3937  -11.2167 C.ar      1 <0>        -0.0984
     23 C19        -8.8310   -4.0601  -11.1781 C.ar      1 <0>        -0.1043
     24 C20        -7.7007   -3.6706  -10.4842 C.ar      1 <0>        -0.0993
     25 N4         -6.6356   -5.0698   -7.0011 N.4       1 <0>        -0.6366
     26 C21        -1.9526   -6.1438   -1.5365 C.2       1 <0>        -0.1264
     27 C22        -3.1969   -6.4876   -1.2356 C.2       1 <0>        -0.0961
     28 C23        -4.3456   -5.6124   -1.6664 C.3       1 <0>        -0.1311
     29 C24        -5.7490   -6.0112   -1.2057 C.3       1 <0>        -0.1643
     30 C25        -5.3424   -6.1976   -2.6688 C.3       1 <0>        -0.1544
     31 C26        -5.0967   -7.6265   -3.1572 C.3       1 <0>        -0.1284
     32 S1          2.0618   -2.8309   -1.9801 S.o2      1 <0>         2.5933
     33 O2          2.0958   -4.2135   -2.3063 O.2       1 <0>        -0.9364
     34 O3          3.1270   -1.9705   -2.3601 O.2       1 <0>        -0.9331
     35 C27         1.6804   -2.6133   -0.2201 C.3       1 <0>        -0.6737
     36 H1          1.0209    1.8257   -2.8101 H         1 <0>         0.0632
     37 H2         -0.5417    1.5392   -3.6130 H         1 <0>         0.0597
     38 H3         -0.4983    2.0960   -1.9229 H         1 <0>         0.0631
     39 H4          0.5595   -0.0420   -1.2457 H         1 <0>         0.0655
     40 H5         -1.0031   -0.3285   -2.0485 H         1 <0>         0.0704
     41 H6          0.1765   -0.7854   -4.1813 H         1 <0>         0.0949
     42 H7          1.7391   -0.4989   -3.3784 H         1 <0>         0.1123
     43 H8          0.0618   -4.3604   -1.3594 H         1 <0>         0.1372
     44 H9         -3.4042   -5.3640   -3.6713 H         1 <0>         0.1459
     45 H10        -1.0292   -1.9534   -4.7179 H         1 <0>         0.1513
     46 H11        -6.6664   -1.8536   -8.0759 H         1 <0>         0.1243
     47 H12        -7.9843   -3.0477   -8.1509 H         1 <0>         0.1084
     48 H13        -7.3551   -2.5146   -6.5735 H         1 <0>         0.0909
     49 H14        -5.2679   -3.3044   -9.5531 H         1 <0>         0.1361
     50 H15        -4.9603   -4.9988   -9.1030 H         1 <0>         0.1056
     51 H16        -6.6882   -6.6871   -9.3646 H         1 <0>         0.1237
     52 H17        -8.7056   -7.3800  -10.5946 H         1 <0>         0.1339
     53 H18       -10.0777   -5.6977  -11.7566 H         1 <0>         0.1341
     54 H19        -9.4327   -3.3223  -11.6880 H         1 <0>         0.1354
     55 H20        -7.4199   -2.6283  -10.4510 H         1 <0>         0.1346
     56 H21        -6.8799   -4.8602   -6.0449 H         1 <0>         0.4397
     57 H22        -7.4624   -5.3537   -7.5050 H         1 <0>         0.4460
     58 H23        -1.1243   -6.7093   -1.1360 H         1 <0>         0.1365
     59 H24        -3.3875   -7.3950   -0.6818 H         1 <0>         0.1268
     60 H25        -4.1234   -4.5479   -1.7406 H         1 <0>         0.1140
     61 H26        -5.8415   -6.9066   -0.5911 H         1 <0>         0.1022
     62 H27        -6.4505   -5.2089   -0.9765 H         1 <0>         0.0984
     63 H28        -5.7763   -5.5179   -3.4023 H         1 <0>         0.0936
     64 H29        -5.1095   -8.3084   -2.3069 H         1 <0>         0.0659
     65 H30        -5.8790   -7.9094   -3.8615 H         1 <0>         0.0568
     66 H31        -4.1265   -7.6799   -3.6512 H         1 <0>         0.0622
     67 H32         0.7086   -3.0560   -0.0014 H         1 <0>         0.1311
     68 H33         2.4464   -3.1034    0.3810 H         1 <0>         0.1400
     69 H34         1.6571   -1.5499    0.0179 H         1 <0>         0.1361
     70 H35        -5.9577   -5.8169   -7.0190 H         1 <0>         0.4395
@<TRIPOS>BOND
     1    1    2 1
     2    1   36 1
     3    1   37 1
     4    1   38 1
     5    2    3 1
     6    2   39 1
     7    2   40 1
     8    3    4 1
     9    3   41 1
    10    3   42 1
    11    4    5 1
    12    4   32 1
    13    5   10 ar
    14    5    6 ar
    15    6    7 ar
    16    6   43 1
    17    7    8 ar
    18    7   26 1
    19    8    9 ar
    20    8   44 1
    21    9   10 ar
    22    9   11 1
    23   10   45 1
    24   11   15 1
    25   11   12 2
    26   12   13 1
    27   13   14 2
    28   14   15 1
    29   14   16 1
    30   16   17 1
    31   16   18 1
    32   16   25 1
    33   17   46 1
    34   17   47 1
    35   17   48 1
    36   18   19 1
    37   18   49 1
    38   18   50 1
    39   19   24 ar
    40   19   20 ar
    41   20   21 ar
    42   20   51 1
    43   21   22 ar
    44   21   52 1
    45   22   23 ar
    46   22   53 1
    47   23   24 ar
    48   23   54 1
    49   24   55 1
    50   25   56 1
    51   25   57 1
    52   25   70 1
    53   26   27 2
    54   26   58 1
    55   27   28 1
    56   27   59 1
    57   28   30 1
    58   28   29 1
    59   28   60 1
    60   29   30 1
    61   29   61 1
    62   29   62 1
    63   30   31 1
    64   30   63 1
    65   31   64 1
    66   31   65 1
    67   31   66 1
    68   32   33 2
    69   32   34 2
    70   32   35 1
    71   35   67 1
    72   35   68 1
    73   35   69 1
@<TRIPOS>MOLECULE
CHEMBL1162068__1
   70    73     0     0     0
SMALL
USER_CHARGES

@<TRIPOS>ATOM
      1 C1         -0.5290    1.7502   -1.5925 C.3       1 <0>        -0.1537
      2 C2         -0.4491    0.2643   -1.2366 C.3       1 <0>        -0.1458
      3 C3          0.4609   -0.4515   -2.2368 C.3       1 <0>         0.0948
      4 N1          0.5374   -1.8743   -1.8960 N.pl3     1 <0>        -0.9383
      5 C4         -0.4416   -2.7572   -2.3589 C.ar      1 <0>         0.1888
      6 C5         -0.6992   -3.9311   -1.6651 C.ar      1 <0>        -0.1169
      7 C6         -1.6761   -4.8144   -2.1243 C.ar      1 <0>        -0.0090
      8 C7         -2.3939   -4.5171   -3.2811 C.ar      1 <0>        -0.0951
      9 C8         -2.1330   -3.3376   -3.9755 C.ar      1 <0>        -0.0210
     10 C9         -1.1580   -2.4556   -3.5080 C.ar      1 <0>        -0.0908
     11 C10        -2.8921   -3.0185   -5.2038 C.2       1 <0>         0.2710
     12 N2         -2.7456   -1.9521   -5.9543 N.2       1 <0>        -0.2622
     13 N3         -3.5721   -2.0093   -6.9387 N.2       1 <0>        -0.2087
     14 C11        -4.2729   -3.1056   -6.8561 C.2       1 <0>         0.0851
     15 O1         -3.8594   -3.7717   -5.7643 O.3       1 <0>        -0.2286
     16 C12        -5.3489   -3.5482   -7.8140 C.3       1 <0>         0.1959
     17 C13        -6.4651   -2.5023   -7.8458 C.3       1 <0>        -0.1816
     18 C14        -4.7531   -3.7011   -9.2149 C.3       1 <0>        -0.0908
     19 C15        -5.8290   -4.1437  -10.1728 C.ar      1 <0>        -0.1314
     20 C16        -6.0654   -5.4911  -10.3720 C.ar      1 <0>        -0.1417
     21 C17        -7.0523   -5.8971  -11.2507 C.ar      1 <0>        -0.1059
     22 C18        -7.8031   -4.9557  -11.9298 C.ar      1 <0>        -0.0984
     23 C19        -7.5673   -3.6084  -11.7298 C.ar      1 <0>        -0.1043
     24 C20        -6.5832   -3.2024  -10.8479 C.ar      1 <0>        -0.0991
     25 N4         -5.8980   -4.8371   -7.3720 N.4       1 <0>        -0.6382
     26 C21        -1.9495   -6.0650   -1.3847 C.2       1 <0>        -0.1272
     27 C22        -3.1969   -6.4876   -1.2356 C.2       1 <0>        -0.0984
     28 C23        -4.3456   -5.6124   -1.6664 C.3       1 <0>        -0.1326
     29 C24        -5.7490   -6.0112   -1.2057 C.3       1 <0>        -0.1617
     30 C25        -5.3424   -6.1976   -2.6688 C.3       1 <0>        -0.1552
     31 C26        -5.9514   -5.2436   -3.6983 C.3       1 <0>        -0.1360
     32 S1          1.7842   -2.4361   -0.9621 S.o2      1 <0>         2.5931
     33 O2          1.9836   -3.7760   -1.3914 O.2       1 <0>        -0.9363
     34 O3          2.8132   -1.4673   -1.1100 O.2       1 <0>        -0.9330
     35 C27         1.1431   -2.4125    0.7347 C.3       1 <0>        -0.6736
     36 H1          0.4688    2.1873   -1.5534 H         1 <0>         0.0632
     37 H2         -0.9353    1.8616   -2.5978 H         1 <0>         0.0597
     38 H3         -1.1772    2.2601   -0.8799 H         1 <0>         0.0631
     39 H4         -0.0427    0.1528   -0.2313 H         1 <0>         0.0655
     40 H5         -1.4468   -0.1728   -1.2757 H         1 <0>         0.0704
     41 H6          0.0545   -0.3400   -3.2421 H         1 <0>         0.0949
     42 H7          1.4586   -0.0144   -2.1977 H         1 <0>         0.1124
     43 H8         -0.1423   -4.1612   -0.7688 H         1 <0>         0.1375
     44 H9         -3.1506   -5.1996   -3.6388 H         1 <0>         0.1419
     45 H10        -0.9581   -1.5393   -4.0434 H         1 <0>         0.1516
     46 H11        -6.0576   -1.5460   -8.1737 H         1 <0>         0.1251
     47 H12        -7.2433   -2.8225   -8.5387 H         1 <0>         0.1088
     48 H13        -6.8895   -2.3934   -6.8478 H         1 <0>         0.0911
     49 H14        -4.3456   -2.7448   -9.5428 H         1 <0>         0.1366
     50 H15        -3.9578   -4.4463   -9.1922 H         1 <0>         0.1059
     51 H16        -5.4788   -6.2265   -9.8415 H         1 <0>         0.1238
     52 H17        -7.2366   -6.9497  -11.4069 H         1 <0>         0.1340
     53 H18        -8.5737   -5.2729  -12.6168 H         1 <0>         0.1341
     54 H19        -8.1536   -2.8730  -12.2606 H         1 <0>         0.1355
     55 H20        -6.4015   -2.1497  -10.6889 H         1 <0>         0.1348
     56 H21        -6.2909   -4.7363   -6.4482 H         1 <0>         0.4363
     57 H22        -6.6183   -5.1334   -8.0134 H         1 <0>         0.4464
     58 H23        -1.1328   -6.6342   -0.9660 H         1 <0>         0.1372
     59 H24        -3.3901   -7.4593   -0.8055 H         1 <0>         0.1271
     60 H25        -4.1234   -4.5479   -1.7406 H         1 <0>         0.1141
     61 H26        -5.8415   -6.9066   -0.5911 H         1 <0>         0.1018
     62 H27        -6.4505   -5.2089   -0.9765 H         1 <0>         0.0998
     63 H28        -5.1673   -7.2156   -3.0168 H         1 <0>         0.1101
     64 H29        -5.1570   -4.8069   -4.3036 H         1 <0>         0.0523
     65 H30        -6.6379   -5.7937   -4.3420 H         1 <0>         0.0578
     66 H31        -6.4932   -4.4505   -3.1829 H         1 <0>         0.0666
     67 H32         0.1925   -2.9445    0.7713 H         1 <0>         0.1310
     68 H33         1.8572   -2.8982    1.3997 H         1 <0>         0.1401
     69 H34         0.9943   -1.3805    1.0525 H         1 <0>         0.1361
     70 H35        -5.1618   -5.5268   -7.3510 H         1 <0>         0.4398
@<TRIPOS>BOND
     1    1    2 1
     2    1   36 1
     3    1   37 1
     4    1   38 1
     5    2    3 1
     6    2   39 1
     7    2   40 1
     8    3    4 1
     9    3   41 1
    10    3   42 1
    11    4    5 1
    12    4   32 1
    13    5   10 ar
    14    5    6 ar
    15    6    7 ar
    16    6   43 1
    17    7    8 ar
    18    7   26 1
    19    8    9 ar
    20    8   44 1
    21    9   10 ar
    22    9   11 1
    23   10   45 1
    24   11   15 1
    25   11   12 2
    26   12   13 1
    27   13   14 2
    28   14   15 1
    29   14   16 1
    30   16   17 1
    31   16   18 1
    32   16   25 1
    33   17   46 1
    34   17   47 1
    35   17   48 1
    36   18   19 1
    37   18   49 1
    38   18   50 1
    39   19   24 ar
    40   19   20 ar
    41   20   21 ar
    42   20   51 1
    43   21   22 ar
    44   21   52 1
    45   22   23 ar
    46   22   53 1
    47   23   24 ar
    48   23   54 1
    49   24   55 1
    50   25   56 1
    51   25   57 1
    52   25   70 1
    53   26   27 2
    54   26   58 1
    55   27   28 1
    56   27   59 1
    57   28   30 1
    58   28   29 1
    59   28   60 1
    60   29   30 1
    61   29   61 1
    62   29   62 1
    63   30   31 1
    64   30   63 1
    65   31   64 1
    66   31   65 1
    67   31   66 1
    68   32   33 2
    69   32   34 2
    70   32   35 1
    71   35   67 1
    72   35   68 1
    73   35   69 1
@<TRIPOS>MOLECULE
CHEMBL1162068__2
   70    73     0     0     0
SMALL
USER_CHARGES

@<TRIPOS>ATOM
      1 C1          2.2956    0.6366   -0.7873 C.3       1 <0>        -0.1537
      2 C2          1.9335   -0.8498   -0.7779 C.3       1 <0>        -0.1458
      3 C3          2.1308   -1.4317   -2.1791 C.3       1 <0>         0.0949
      4 N1          1.7840   -2.8550   -2.1702 N.pl3     1 <0>        -0.9383
      5 C4          0.4548   -3.2513   -2.3385 C.ar      1 <0>         0.1889
      6 C5          0.0258   -4.4693   -1.8303 C.ar      1 <0>        -0.1168
      7 C6         -1.3007   -4.8677   -1.9962 C.ar      1 <0>        -0.0089
      8 C7         -2.1954   -4.0412   -2.6731 C.ar      1 <0>        -0.0973
      9 C8         -1.7616   -2.8189   -3.1822 C.ar      1 <0>        -0.0211
     10 C9         -0.4347   -2.4238   -3.0082 C.ar      1 <0>        -0.0910
     11 C10        -2.7078   -1.9390   -3.9016 C.2       1 <0>         0.2710
     12 N2         -2.4336   -0.7713   -4.4339 N.2       1 <0>        -0.2620
     13 N3         -3.4970   -0.2928   -4.9775 N.2       1 <0>        -0.2085
     14 C11        -4.4838   -1.1293   -4.8150 C.2       1 <0>         0.0849
     15 O1         -4.0110   -2.1897   -4.1377 O.3       1 <0>        -0.2287
     16 C12        -5.8975   -0.9432   -5.3025 C.3       1 <0>         0.1957
     17 C13        -6.4919    0.3187   -4.6737 C.3       1 <0>        -0.1809
     18 C14        -5.8973   -0.8023   -6.8260 C.3       1 <0>        -0.0915
     19 C15        -7.3110   -0.6161   -7.3135 C.ar      1 <0>        -0.1314
     20 C16        -8.0797   -1.7173   -7.6415 C.ar      1 <0>        -0.1419
     21 C17        -9.3765   -1.5465   -8.0887 C.ar      1 <0>        -0.1057
     22 C18        -9.9048   -0.2747   -8.2075 C.ar      1 <0>        -0.0982
     23 C19        -9.1365    0.8264   -7.8786 C.ar      1 <0>        -0.1041
     24 C20        -7.8411    0.6555   -7.4274 C.ar      1 <0>        -0.0988
     25 N4         -6.7053   -2.1086   -4.9187 N.4       1 <0>        -0.6386
     26 C21        -1.7567   -6.1657   -1.4550 C.2       1 <0>        -0.1280
     27 C22        -2.6215   -6.9018   -2.1385 C.2       1 <0>        -0.0954
     28 C23        -3.0208   -6.4942   -3.5333 C.3       1 <0>        -0.1359
     29 C24        -3.7190   -7.5418   -4.4027 C.3       1 <0>        -0.1609
     30 C25        -4.5161   -6.3675   -3.8314 C.3       1 <0>        -0.1543
     31 C26        -4.9520   -5.2698   -4.8040 C.3       1 <0>        -0.1379
     32 S1          2.9675   -3.9942   -1.9606 S.o2      1 <0>         2.5927
     33 O2          2.5046   -5.1332   -2.6732 O.2       1 <0>        -0.9360
     34 O3          4.1708   -3.3413   -2.3412 O.2       1 <0>        -0.9331
     35 C27         2.9774   -4.3336   -0.1786 C.3       1 <0>        -0.6735
     36 H1          3.3370    0.7550   -1.0865 H         1 <0>         0.0630
     37 H2          1.6527    1.1628   -1.4930 H         1 <0>         0.0597
     38 H3          2.1550    1.0511    0.2110 H         1 <0>         0.0632
     39 H4          2.5763   -1.3760   -0.0722 H         1 <0>         0.0655
     40 H5          0.8920   -0.9682   -0.4787 H         1 <0>         0.0709
     41 H6          1.4879   -0.9055   -2.8848 H         1 <0>         0.0949
     42 H7          3.1722   -1.3133   -2.4784 H         1 <0>         0.1123
     43 H8          0.7197   -5.1096   -1.3061 H         1 <0>         0.1375
     44 H9         -3.2228   -4.3476   -2.8031 H         1 <0>         0.1431
     45 H10        -0.0988   -1.4746   -3.3990 H         1 <0>         0.1517
     46 H11        -5.8925    1.1834   -4.9585 H         1 <0>         0.1249
     47 H12        -7.5144    0.4533   -5.0263 H         1 <0>         0.1087
     48 H13        -6.4921    0.2183   -3.5883 H         1 <0>         0.0918
     49 H14        -5.2979    0.0625   -7.1108 H         1 <0>         0.1370
     50 H15        -5.4739   -1.7012   -7.2740 H         1 <0>         0.1051
     51 H16        -7.6669   -2.7110   -7.5487 H         1 <0>         0.1231
     52 H17        -9.9768   -2.4068   -8.3456 H         1 <0>         0.1341
     53 H18       -10.9178   -0.1413   -8.5575 H         1 <0>         0.1343
     54 H19        -9.5492    1.8201   -7.9717 H         1 <0>         0.1356
     55 H20        -7.2421    1.5155   -7.1669 H         1 <0>         0.1350
     56 H21        -6.7055   -2.2016   -3.9140 H         1 <0>         0.4410
     57 H22        -7.6519   -1.9840   -5.2451 H         1 <0>         0.4465
     58 H23        -1.3851   -6.5141   -0.5026 H         1 <0>         0.1353
     59 H24        -3.0399   -7.7936   -1.6958 H         1 <0>         0.1273
     60 H25        -2.3476   -5.7954   -4.0298 H         1 <0>         0.1161
     61 H26        -3.5051   -7.5324   -5.4715 H         1 <0>         0.1003
     62 H27        -3.8895   -8.5258   -3.9659 H         1 <0>         0.1023
     63 H28        -5.2110   -6.5789   -3.0187 H         1 <0>         0.1109
     64 H29        -4.4781   -5.4329   -5.7720 H         1 <0>         0.0669
     65 H30        -6.0354   -5.2969   -4.9207 H         1 <0>         0.0600
     66 H31        -4.6530   -4.2976   -4.4123 H         1 <0>         0.0506
     67 H32         1.9668   -4.5749    0.1509 H         1 <0>         0.1311
     68 H33         3.6375   -5.1763    0.0271 H         1 <0>         0.1400
     69 H34         3.3339   -3.4537    0.3569 H         1 <0>         0.1362
     70 H35        -6.3133   -2.9408   -5.3334 H         1 <0>         0.4346
@<TRIPOS>BOND
     1    1    2 1
     2    1   36 1
     3    1   37 1
     4    1   38 1
     5    2    3 1
     6    2   39 1
     7    2   40 1
     8    3    4 1
     9    3   41 1
    10    3   42 1
    11    4    5 1
    12    4   32 1
    13    5   10 ar
    14    5    6 ar
    15    6    7 ar
    16    6   43 1
    17    7    8 ar
    18    7   26 1
    19    8    9 ar
    20    8   44 1
    21    9   10 ar
    22    9   11 1
    23   10   45 1
    24   11   15 1
    25   11   12 2
    26   12   13 1
    27   13   14 2
    28   14   15 1
    29   14   16 1
    30   16   17 1
    31   16   18 1
    32   16   25 1
    33   17   46 1
    34   17   47 1
    35   17   48 1
    36   18   19 1
    37   18   49 1
    38   18   50 1
    39   19   24 ar
    40   19   20 ar
    41   20   21 ar
    42   20   51 1
    43   21   22 ar
    44   21   52 1
    45   22   23 ar
    46   22   53 1
    47   23   24 ar
    48   23   54 1
    49   24   55 1
    50   25   56 1
    51   25   57 1
    52   25   70 1
    53   26   27 2
    54   26   58 1
    55   27   28 1
    56   27   59 1
    57   28   30 1
    58   28   29 1
    59   28   60 1
    60   29   30 1
    61   29   61 1
    62   29   62 1
    63   30   31 1
    64   30   63 1
    65   31   64 1
    66   31   65 1
    67   31   66 1
    68   32   33 2
    69   32   34 2
    70   32   35 1
    71   35   67 1
    72   35   68 1
    73   35   69 1
@<TRIPOS>MOLECULE
CHEMBL1162068__3
   70    73     0     0     0
SMALL
USER_CHARGES

@<TRIPOS>ATOM
      1 C1          1.0269    1.2127   -0.2535 C.3       1 <0>        -0.1537
      2 C2          0.8916   -0.3108   -0.2907 C.3       1 <0>        -0.1458
      3 C3          1.3303   -0.8285   -1.6620 C.3       1 <0>         0.0949
      4 N1          1.2007   -2.2873   -1.6976 N.pl3     1 <0>        -0.9384
      5 C4         -0.0270   -2.8719   -2.0186 C.ar      1 <0>         0.1882
      6 C5         -0.3244   -4.1500   -1.5670 C.ar      1 <0>        -0.1168
      7 C6         -1.5493   -4.7364   -1.8853 C.ar      1 <0>        -0.0096
      8 C7         -2.4750   -4.0375   -2.6576 C.ar      1 <0>        -0.1008
      9 C8         -2.1735   -2.7544   -3.1095 C.ar      1 <0>        -0.0215
     10 C9         -0.9485   -2.1713   -2.7832 C.ar      1 <0>        -0.0909
     11 C10        -3.1528   -2.0094   -3.9297 C.2       1 <0>         0.2714
     12 N2         -2.9974   -0.8034   -4.4231 N.2       1 <0>        -0.2629
     13 N3         -4.0519   -0.4761   -5.0836 N.2       1 <0>        -0.2098
     14 C11        -4.9150   -1.4523   -5.0381 C.2       1 <0>         0.0854
     15 O1         -4.3691   -2.4449   -4.3146 O.3       1 <0>        -0.2291
     16 C12        -6.2765   -1.4671   -5.6839 C.3       1 <0>         0.1970
     17 C13        -7.1194   -0.3199   -5.1232 C.3       1 <0>        -0.1811
     18 C14        -6.1252   -1.2967   -7.1968 C.3       1 <0>        -0.0910
     19 C15        -7.4868   -1.3114   -7.8426 C.ar      1 <0>        -0.1311
     20 C16        -8.0407   -2.5070   -8.2603 C.ar      1 <0>        -0.1414
     21 C17        -9.2896   -2.5206   -8.8527 C.ar      1 <0>        -0.1060
     22 C18        -9.9848   -1.3385   -9.0270 C.ar      1 <0>        -0.0984
     23 C19        -9.4312   -0.1429   -8.6086 C.ar      1 <0>        -0.1042
     24 C20        -8.1841   -0.1299   -8.0123 C.ar      1 <0>        -0.0992
     25 N4         -6.9397   -2.7466   -5.3992 N.4       1 <0>        -0.6367
     26 C21        -1.8650   -6.0982   -1.4042 C.2       1 <0>        -0.1265
     27 C22        -2.6215   -6.9018   -2.1385 C.2       1 <0>        -0.0938
     28 C23        -3.0208   -6.4942   -3.5333 C.3       1 <0>        -0.1347
     29 C24        -3.7190   -7.5418   -4.4027 C.3       1 <0>        -0.1638
     30 C25        -4.5161   -6.3675   -3.8314 C.3       1 <0>        -0.1533
     31 C26        -5.4916   -6.6642   -2.6906 C.3       1 <0>        -0.1278
     32 S1          2.5094   -3.2433   -1.3574 S.o2      1 <0>         2.5929
     33 O2          2.3049   -4.4234   -2.1222 O.2       1 <0>        -0.9362
     34 O3          3.6372   -2.4123   -1.5953 O.2       1 <0>        -0.9332
     35 C27         2.3685   -3.6138    0.4127 C.3       1 <0>        -0.6736
     36 H1          2.0661    1.4896   -0.4309 H         1 <0>         0.0630
     37 H2          0.3967    1.6525   -1.0265 H         1 <0>         0.0597
     38 H3          0.7143    1.5815    0.7234 H         1 <0>         0.0632
     39 H4          1.5218   -0.7505    0.4823 H         1 <0>         0.0655
     40 H5         -0.1477   -0.5877   -0.1133 H         1 <0>         0.0708
     41 H6          0.7001   -0.3887   -2.4350 H         1 <0>         0.0948
     42 H7          2.3695   -0.5516   -1.8394 H         1 <0>         0.1122
     43 H8          0.3936   -4.6914   -0.9688 H         1 <0>         0.1372
     44 H9         -3.4240   -4.4895   -2.9056 H         1 <0>         0.1477
     45 H10        -0.7158   -1.1753   -3.1296 H         1 <0>         0.1513
     46 H11        -6.6273    0.6295   -5.3345 H         1 <0>         0.1243
     47 H12        -8.1042   -0.3305   -5.5903 H         1 <0>         0.1084
     48 H13        -7.2272   -0.4413   -4.0454 H         1 <0>         0.0914
     49 H14        -5.6331   -0.3473   -7.4081 H         1 <0>         0.1361
     50 H15        -5.5248   -2.1139   -7.5963 H         1 <0>         0.1051
     51 H16        -7.4977   -3.4306   -8.1241 H         1 <0>         0.1235
     52 H17        -9.7221   -3.4546   -9.1796 H         1 <0>         0.1339
     53 H18       -10.9602   -1.3490   -9.4905 H         1 <0>         0.1341
     54 H19        -9.9741    0.7806   -8.7451 H         1 <0>         0.1354
     55 H20        -7.7532    0.8037   -7.6820 H         1 <0>         0.1347
     56 H21        -7.0395   -2.8589   -4.4014 H         1 <0>         0.4408
     57 H22        -7.8513   -2.7564   -5.8316 H         1 <0>         0.4461
     58 H23        -1.4793   -6.4384   -0.4545 H         1 <0>         0.1347
     59 H24        -2.9517   -7.8485   -1.7371 H         1 <0>         0.1269
     60 H25        -2.3476   -5.7954   -4.0298 H         1 <0>         0.1161
     61 H26        -3.5051   -7.5324   -5.4715 H         1 <0>         0.0988
     62 H27        -3.8895   -8.5258   -3.9659 H         1 <0>         0.1026
     63 H28        -4.8266   -5.5855   -4.5243 H         1 <0>         0.0923
     64 H29        -5.3035   -5.9787   -1.8643 H         1 <0>         0.0620
     65 H30        -6.5144   -6.5349   -3.0443 H         1 <0>         0.0579
     66 H31        -5.3516   -7.6903   -2.3506 H         1 <0>         0.0654
     67 H32         1.3745   -4.0082    0.6234 H         1 <0>         0.1311
     68 H33         3.1193   -4.3537    0.6900 H         1 <0>         0.1400
     69 H34         2.5271   -2.7019    0.9885 H         1 <0>         0.1362
     70 H35        -6.3839   -3.5031   -5.7689 H         1 <0>         0.4384
@<TRIPOS>BOND
     1    1    2 1
     2    1   36 1
     3    1   37 1
     4    1   38 1
     5    2    3 1
     6    2   39 1
     7    2   40 1
     8    3    4 1
     9    3   41 1
    10    3   42 1
    11    4    5 1
    12    4   32 1
    13    5   10 ar
    14    5    6 ar
    15    6    7 ar
    16    6   43 1
    17    7    8 ar
    18    7   26 1
    19    8    9 ar
    20    8   44 1
    21    9   10 ar
    22    9   11 1
    23   10   45 1
    24   11   15 1
    25   11   12 2
    26   12   13 1
    27   13   14 2
    28   14   15 1
    29   14   16 1
    30   16   17 1
    31   16   18 1
    32   16   25 1
    33   17   46 1
    34   17   47 1
    35   17   48 1
    36   18   19 1
    37   18   49 1
    38   18   50 1
    39   19   24 ar
    40   19   20 ar
    41   20   21 ar
    42   20   51 1
    43   21   22 ar
    44   21   52 1
    45   22   23 ar
    46   22   53 1
    47   23   24 ar
    48   23   54 1
    49   24   55 1
    50   25   56 1
    51   25   57 1
    52   25   70 1
    53   26   27 2
    54   26   58 1
    55   27   28 1
    56   27   59 1
    57   28   30 1
    58   28   29 1
    59   28   60 1
    60   29   30 1
    61   29   61 1
    62   29   62 1
    63   30   31 1
    64   30   63 1
    65   31   64 1
    66   31   65 1
    67   31   66 1
    68   32   33 2
    69   32   34 2
    70   32   35 1
    71   35   67 1
    72   35   68 1
    73   35   69 1
@<TRIPOS>MOLECULE
CHEMBL271710
   79    83     0     0     0
SMALL
USER_CHARGES

@<TRIPOS>ATOM
      1 C1          1.2388   -2.4165    0.1895 C.3       1 <0>        -0.1870
      2 C2          0.5977   -1.9407   -1.1156 C.3       1 <0>        -0.0185
      3 N1          0.5775   -0.4721   -1.1444 N.4       1 <0>        -0.3821
      4 C3         -0.1566   -0.0156   -2.3321 C.3       1 <0>         0.0388
      5 C4         -1.6007   -0.4321   -2.2209 C.ar      1 <0>        -0.1574
      6 C5         -2.0073   -1.6561   -2.7183 C.ar      1 <0>        -0.0987
      7 C6         -3.3319   -2.0381   -2.6163 C.ar      1 <0>        -0.1130
      8 C7         -4.2498   -1.1963   -2.0165 C.ar      1 <0>        -0.0853
      9 C8         -3.8430    0.0273   -1.5182 C.ar      1 <0>        -0.1127
     10 C9         -2.5176    0.4075   -1.6164 C.ar      1 <0>        -0.0936
     11 C10         1.9550    0.0356   -1.1950 C.3       1 <0>         0.0390
     12 C11         1.9410    1.5383   -1.0817 C.ar      1 <0>        -0.1568
     13 C12         1.9750    2.3158   -2.2255 C.ar      1 <0>        -0.0894
     14 C13         1.9624    3.6921   -2.1281 C.ar      1 <0>        -0.0950
     15 C14         1.9148    4.2991   -0.8735 C.ar      1 <0>         0.0155
     16 C15         1.8803    3.5101    0.2758 C.ar      1 <0>        -0.0962
     17 C16         1.8885    2.1346    0.1655 C.ar      1 <0>        -0.0920
     18 C17         1.9015    5.7766   -0.7620 C.2       1 <0>        -0.2130
     19 C18         0.8168    6.4414   -0.2457 C.2       1 <0>         0.0342
     20 C19         0.8578    7.8592   -0.1989 C.ar      1 <0>        -0.2012
     21 C20        -0.1268    8.5768    0.4961 C.ar      1 <0>        -0.0047
     22 C21        -0.0532    9.9368    0.5669 C.ar      1 <0>        -0.2263
     23 C22         0.9901   10.6223   -0.0530 C.ar      1 <0>         0.2001
     24 C23         1.9618    9.9322   -0.7599 C.ar      1 <0>        -0.1734
     25 C24         1.8981    8.5508   -0.8478 C.ar      1 <0>         0.1872
     26 O1          2.8177    7.8657   -1.5704 O.3       1 <0>        -0.2702
     27 C25         3.0531    6.5844   -1.1951 C.2       1 <0>         0.5215
     28 O2          4.1762    6.1157   -1.2192 O.2       1 <0>        -0.4279
     29 O3          1.0545   11.9753    0.0360 O.3       1 <0>        -0.2989
     30 C26         0.0218   12.6265    0.7787 C.3       1 <0>         0.0419
     31 C27         0.2612   14.1376    0.7680 C.3       1 <0>         0.1207
     32 N2          0.1315   14.6428   -0.6010 N.am      1 <0>        -0.7331
     33 C28         0.3021   15.9556   -0.8539 C.2       1 <0>         0.5147
     34 O4          0.5629   16.7187    0.0520 O.2       1 <0>        -0.5330
     35 C29         0.1687   16.4753   -2.2621 C.3       1 <0>        -0.1365
     36 C30         0.4081   17.9864   -2.2729 C.3       1 <0>        -0.0659
     37 C31         0.2746   18.5061   -3.6811 C.ar      1 <0>        -0.0663
     38 C32         1.3818   18.5524   -4.5079 C.ar      1 <0>        -0.0962
     39 C33         1.2619   19.0286   -5.7999 C.ar      1 <0>        -0.1216
     40 C34         0.0325   19.4595   -6.2674 C.ar      1 <0>         0.0650
     41 C35        -1.0779   19.4126   -5.4384 C.ar      1 <0>         0.0712
     42 C36        -0.9555   18.9307   -4.1467 C.ar      1 <0>        -0.1231
     43 F1         -2.2789   19.8330   -5.8923 F         1 <0>        -0.1267
     44 F2         -0.0854   19.9255   -7.5299 F         1 <0>        -0.1271
     45 H1          2.2876   -2.1203    0.2082 H         1 <0>         0.0811
     46 H2          0.7189   -1.9661    1.0350 H         1 <0>         0.0788
     47 H3          1.1666   -3.5022    0.2551 H         1 <0>         0.1060
     48 H4          1.1760   -2.3127   -1.9613 H         1 <0>         0.1300
     49 H5         -0.4225   -2.3194   -1.1785 H         1 <0>         0.1323
     50 H6         -0.0960    1.0705   -2.4015 H         1 <0>         0.1370
     51 H7          0.2825   -0.4618   -3.2244 H         1 <0>         0.1350
     52 H8         -1.2902   -2.3137   -3.1869 H         1 <0>         0.1311
     53 H9         -3.6497   -2.9940   -3.0055 H         1 <0>         0.1360
     54 H10        -5.2848   -1.4944   -1.9374 H         1 <0>         0.1356
     55 H11        -4.5602    0.6851   -1.0499 H         1 <0>         0.1354
     56 H12        -2.1990    1.3618   -1.2238 H         1 <0>         0.1296
     57 H13         2.5282   -0.3857   -0.3691 H         1 <0>         0.1406
     58 H14         2.4142   -0.2532   -2.1405 H         1 <0>         0.1370
     59 H15         2.0118    1.8445   -3.1965 H         1 <0>         0.1357
     60 H16         1.9896    4.2981   -3.0217 H         1 <0>         0.1356
     61 H17         1.8438    3.9745    1.2502 H         1 <0>         0.1380
     62 H18         1.8580    1.5225    1.0547 H         1 <0>         0.1344
     63 H19        -0.0451    5.8997    0.1150 H         1 <0>         0.1518
     64 H20        -0.9417    8.0534    0.9739 H         1 <0>         0.1457
     65 H21        -0.8095   10.4868    1.1072 H         1 <0>         0.1450
     66 H22         2.7659   10.4693   -1.2410 H         1 <0>         0.1559
     67 H23        -0.9449   12.4085    0.3248 H         1 <0>         0.0794
     68 H24         0.0303   12.2646    1.8069 H         1 <0>         0.0896
     69 H25        -0.4742   14.6265    1.4069 H         1 <0>         0.0966
     70 H26         1.2636   14.3493    1.1399 H         1 <0>         0.0842
     71 H27        -0.0771   14.0325   -1.3255 H         1 <0>         0.4042
     72 H28         0.9041   15.9864   -2.9010 H         1 <0>         0.0993
     73 H29        -0.8338   16.2636   -2.6341 H         1 <0>         0.0980
     74 H30        -0.3274   18.4754   -1.6340 H         1 <0>         0.0873
     75 H31         1.4105   18.1982   -1.9009 H         1 <0>         0.0893
     76 H32         2.3414   18.2164   -4.1437 H         1 <0>         0.1419
     77 H33         2.1277   19.0649   -6.4445 H         1 <0>         0.1481
     78 H34        -1.8205   18.8902   -3.5012 H         1 <0>         0.1466
     79 H35         0.1217   -0.1257   -0.3135 H         1 <0>         0.4208
@<TRIPOS>BOND
     1    1    2 1
     2    1   45 1
     3    1   46 1
     4    1   47 1
     5    2    3 1
     6    2   48 1
     7    2   49 1
     8    3    4 1
     9    3   11 1
    10    3   79 1
    11    4    5 1
    12    4   50 1
    13    4   51 1
    14    5   10 ar
    15    5    6 ar
    16    6    7 ar
    17    6   52 1
    18    7    8 ar
    19    7   53 1
    20    8    9 ar
    21    8   54 1
    22    9   10 ar
    23    9   55 1
    24   10   56 1
    25   11   12 1
    26   11   57 1
    27   11   58 1
    28   12   17 ar
    29   12   13 ar
    30   13   14 ar
    31   13   59 1
    32   14   15 ar
    33   14   60 1
    34   15   16 ar
    35   15   18 1
    36   16   17 ar
    37   16   61 1
    38   17   62 1
    39   18   27 1
    40   18   19 2
    41   19   20 1
    42   19   63 1
    43   20   25 ar
    44   20   21 ar
    45   21   22 ar
    46   21   64 1
    47   22   23 ar
    48   22   65 1
    49   23   24 ar
    50   23   29 1
    51   24   25 ar
    52   24   66 1
    53   25   26 1
    54   26   27 1
    55   27   28 2
    56   29   30 1
    57   30   31 1
    58   30   67 1
    59   30   68 1
    60   31   32 1
    61   31   69 1
    62   31   70 1
    63   32   33 am
    64   32   71 1
    65   33   34 2
    66   33   35 1
    67   35   36 1
    68   35   72 1
    69   35   73 1
    70   36   37 1
    71   36   74 1
    72   36   75 1
    73   37   42 ar
    74   37   38 ar
    75   38   39 ar
    76   38   76 1
    77   39   40 ar
    78   39   77 1
    79   40   41 ar
    80   40   44 1
    81   41   42 ar
    82   41   43 1
    83   42   78 1
@<TRIPOS>MOLECULE
CHEMBL271709
   77    81     0     0     0
SMALL
USER_CHARGES

@<TRIPOS>ATOM
      1 C1         -0.3931   -2.4313   -1.1544 C.3       1 <0>        -0.1869
      2 C2         -1.2146   -1.9717    0.0518 C.3       1 <0>        -0.0185
      3 N1         -1.2663   -0.5039    0.0784 N.4       1 <0>        -0.3821
      4 C3         -1.9392   -0.0598    1.3064 C.3       1 <0>         0.0387
      5 C4         -1.1109   -0.4514    2.5029 C.ar      1 <0>        -0.1573
      6 C5         -1.3076   -1.6786    3.1080 C.ar      1 <0>        -0.0988
      7 C6         -0.5478   -2.0378    4.2055 C.ar      1 <0>        -0.1131
      8 C7          0.4091   -1.1700    4.6976 C.ar      1 <0>        -0.0853
      9 C8          0.6065    0.0568    4.0919 C.ar      1 <0>        -0.1127
     10 C9         -0.1504    0.4142    2.9918 C.ar      1 <0>        -0.0936
     11 C10        -2.0113   -0.0188   -1.0910 C.3       1 <0>         0.0391
     12 C11        -1.9439    1.4859   -1.1408 C.ar      1 <0>        -0.1569
     13 C12        -2.9707    2.2398   -0.6011 C.ar      1 <0>        -0.0894
     14 C13        -2.9146    3.6178   -0.6436 C.ar      1 <0>        -0.0950
     15 C14        -1.8198    4.2505   -1.2319 C.ar      1 <0>         0.0157
     16 C15        -0.7876    3.4852   -1.7738 C.ar      1 <0>        -0.0962
     17 C16        -0.8527    2.1078   -1.7209 C.ar      1 <0>        -0.0920
     18 C17        -1.7538    5.7299   -1.2812 C.2       1 <0>        -0.2133
     19 C18        -0.7813    6.4217   -0.6022 C.2       1 <0>         0.0344
     20 C19        -0.7969    7.8393   -0.6662 C.ar      1 <0>        -0.2014
     21 C20         0.2789    8.5859   -0.1634 C.ar      1 <0>        -0.0047
     22 C21         0.2693    9.9457   -0.2673 C.ar      1 <0>        -0.2262
     23 C22        -0.8060   10.6024   -0.8633 C.ar      1 <0>         0.2002
     24 C23        -1.8863    9.8833   -1.3490 C.ar      1 <0>        -0.1734
     25 C24        -1.8959    8.5015   -1.2451 C.ar      1 <0>         0.1873
     26 O1         -2.9639    7.7878   -1.6778 O.3       1 <0>        -0.2701
     27 C25        -2.7245    6.5109   -2.0648 C.2       1 <0>         0.5215
     28 O2         -3.2948    6.0243   -3.0238 O.2       1 <0>        -0.4280
     29 O3         -0.7951   11.9557   -0.9683 O.3       1 <0>        -0.2987
     30 C26         0.3477   12.6376   -0.4476 C.3       1 <0>         0.0418
     31 C27         0.1808   14.1443   -0.6548 C.3       1 <0>         0.1213
     32 N2         -0.9524   14.6240    0.1402 N.am      1 <0>        -0.7261
     33 C28        -1.2895   15.9287    0.1143 C.2       1 <0>         0.5491
     34 O4         -0.6525   16.7083   -0.5695 O.2       1 <0>        -0.5359
     35 C29        -2.4221   16.4082    0.9089 C.2       1 <0>        -0.2009
     36 C30        -2.7593   17.7131    0.8830 C.2       1 <0>        -0.0179
     37 C31        -3.8980   18.1952    1.6819 C.ar      1 <0>        -0.0171
     38 C32        -4.6283   17.3033    2.4730 C.ar      1 <0>        -0.1510
     39 C33        -5.6957   17.7622    3.2201 C.ar      1 <0>         0.1333
     40 C34        -6.0435   19.1032    3.1864 C.ar      1 <0>        -0.1820
     41 C35        -5.3241   19.9924    2.4040 C.ar      1 <0>         0.1352
     42 C36        -4.2504   19.5479    1.6573 C.ar      1 <0>        -0.1402
     43 F1         -5.6702   21.2981    2.3760 F         1 <0>        -0.1248
     44 F2         -6.4025   16.9016    3.9851 F         1 <0>        -0.1270
     45 H1         -0.2729   -3.5141   -1.1209 H         1 <0>         0.1060
     46 H2         -0.9084   -2.1511   -2.0731 H         1 <0>         0.0811
     47 H3          0.5875   -1.9560   -1.1284 H         1 <0>         0.0788
     48 H4         -2.2265   -2.3695   -0.0250 H         1 <0>         0.1300
     49 H5         -0.7497   -2.3356    0.9680 H         1 <0>         0.1323
     50 H6         -2.0569    1.0236    1.2848 H         1 <0>         0.1370
     51 H7         -2.9200   -0.5305    1.3738 H         1 <0>         0.1350
     52 H8         -2.0552   -2.3566    2.7235 H         1 <0>         0.1311
     53 H9         -0.7020   -2.9963    4.6787 H         1 <0>         0.1360
     54 H10         1.0023   -1.4504    5.5555 H         1 <0>         0.1356
     55 H11         1.3539    0.7349    4.4766 H         1 <0>         0.1354
     56 H12         0.0064    1.3712    2.5163 H         1 <0>         0.1296
     57 H13        -1.5720   -0.4324   -1.9988 H         1 <0>         0.1406
     58 H14        -3.0521   -0.3335   -1.0149 H         1 <0>         0.1370
     59 H15        -3.8180    1.7487   -0.1458 H         1 <0>         0.1357
     60 H16        -3.7171    4.2053   -0.2226 H         1 <0>         0.1356
     61 H17         0.0625    3.9695   -2.2310 H         1 <0>         0.1380
     62 H18        -0.0523    1.5141   -2.1370 H         1 <0>         0.1344
     63 H19        -0.0247    5.9008   -0.0342 H         1 <0>         0.1518
     64 H20         1.1130    8.0849    0.3053 H         1 <0>         0.1457
     65 H21         1.1012   10.5182    0.1156 H         1 <0>         0.1451
     66 H22        -2.7182   10.3980   -1.8067 H         1 <0>         0.1560
     67 H23         0.4432   12.4257    0.6174 H         1 <0>         0.0799
     68 H24         1.2427   12.2963   -0.9676 H         1 <0>         0.0905
     69 H25         1.0892   14.6573   -0.3390 H         1 <0>         0.0982
     70 H26        -0.0034   14.3478   -1.7096 H         1 <0>         0.0856
     71 H27        -1.4601   14.0027    0.6853 H         1 <0>         0.4050
     72 H28        -2.9874   15.7164    1.5158 H         1 <0>         0.1329
     73 H29        -2.1940   18.4050    0.2762 H         1 <0>         0.1465
     74 H30        -4.3587   16.2578    2.4996 H         1 <0>         0.1473
     75 H31        -6.8791   19.4567    3.7721 H         1 <0>         0.1532
     76 H32        -3.6876   20.2429    1.0517 H         1 <0>         0.1515
     77 H33        -0.3278   -0.1338    0.0566 H         1 <0>         0.4208
@<TRIPOS>BOND
     1    1    2 1
     2    1   45 1
     3    1   46 1
     4    1   47 1
     5    2    3 1
     6    2   48 1
     7    2   49 1
     8    3    4 1
     9    3   11 1
    10    3   77 1
    11    4    5 1
    12    4   50 1
    13    4   51 1
    14    5   10 ar
    15    5    6 ar
    16    6    7 ar
    17    6   52 1
    18    7    8 ar
    19    7   53 1
    20    8    9 ar
    21    8   54 1
    22    9   10 ar
    23    9   55 1
    24   10   56 1
    25   11   12 1
    26   11   57 1
    27   11   58 1
    28   12   17 ar
    29   12   13 ar
    30   13   14 ar
    31   13   59 1
    32   14   15 ar
    33   14   60 1
    34   15   16 ar
    35   15   18 1
    36   16   17 ar
    37   16   61 1
    38   17   62 1
    39   18   27 1
    40   18   19 2
    41   19   20 1
    42   19   63 1
    43   20   25 ar
    44   20   21 ar
    45   21   22 ar
    46   21   64 1
    47   22   23 ar
    48   22   65 1
    49   23   24 ar
    50   23   29 1
    51   24   25 ar
    52   24   66 1
    53   25   26 1
    54   26   27 1
    55   27   28 2
    56   29   30 1
    57   30   31 1
    58   30   67 1
    59   30   68 1
    60   31   32 1
    61   31   69 1
    62   31   70 1
    63   32   33 am
    64   32   71 1
    65   33   34 2
    66   33   35 1
    67   35   36 2
    68   35   72 1
    69   36   37 1
    70   36   73 1
    71   37   42 ar
    72   37   38 ar
    73   38   39 ar
    74   38   74 1
    75   39   40 ar
    76   39   44 1
    77   40   41 ar
    78   40   75 1
    79   41   42 ar
    80   41   43 1
    81   42   76 1
@<TRIPOS>MOLECULE
CHEMBL254485
   81    84     0     0     0
SMALL
USER_CHARGES

@<TRIPOS>ATOM
      1 C1         -0.0187    1.5258    0.0104 C.3       1 <0>        -0.1683
      2 C2          0.0021   -0.0041    0.0020 C.3       1 <0>         0.1192
      3 N1          0.6878   -0.4765   -1.2033 N.pl3     1 <0>        -0.7432
      4 C3          0.8321   -1.8483   -1.4334 C.ar      1 <0>         0.2111
      5 C4          0.3209   -2.7596   -0.5231 C.ar      1 <0>        -0.1383
      6 C5          0.4650   -4.1295   -0.7528 C.ar      1 <0>        -0.1229
      7 C6          1.1244   -4.5754   -1.9004 C.ar      1 <0>         0.1088
      8 C7          1.6338   -3.6544   -2.8078 C.ar      1 <0>         0.1593
      9 C8          1.4826   -2.2948   -2.5769 C.ar      1 <0>        -0.1261
     10 N2          2.2950   -4.0985   -3.9574 N.pl3     1 <0>        -0.9501
     11 C9          3.7593   -4.2304   -3.9870 C.3       1 <0>         0.1121
     12 C10         4.3244   -3.3799   -5.1230 C.3       1 <0>        -0.1562
     13 C11         3.8503   -3.9033   -6.4767 C.3       1 <0>        -0.1142
     14 C12         2.3540   -3.6167   -6.6479 C.3       1 <0>        -0.6088
     15 S1          1.4486   -4.5010   -5.3330 S.o2      1 <0>         2.5847
     16 O1          1.6158   -5.9053   -5.4716 O.2       1 <0>        -0.9355
     17 O2          0.1584   -3.9339   -5.1517 O.2       1 <0>        -0.9460
     18 F1          1.2672   -5.8995   -2.1276 F         1 <0>        -0.1070
     19 C13        -0.0781   -5.1040    0.2154 C.2       1 <0>         0.5639
     20 O3          0.0482   -6.2962    0.0138 O.2       1 <0>        -0.4863
     21 N3         -0.7138   -4.6715    1.3224 N.am      1 <0>        -0.7238
     22 C14        -1.2524   -5.6380    2.2826 C.3       1 <0>         0.1273
     23 H1         -1.6182   -6.5152    1.7489 H         1 <0>         0.1103
     24 C15        -0.1499   -6.0571    3.2573 C.3       1 <0>        -0.1008
     25 C16         0.9279   -6.7976    2.5083 C.ar      1 <0>        -0.0803
     26 C17         0.8491   -8.1698    2.3607 C.ar      1 <0>        -0.1064
     27 C18         1.8378   -8.8490    1.6737 C.ar      1 <0>        -0.1103
     28 C19         2.9051   -8.1560    1.1339 C.ar      1 <0>        -0.1079
     29 C20         2.9835   -6.7837    1.2807 C.ar      1 <0>        -0.1075
     30 C21         1.9926   -6.1039    1.9640 C.ar      1 <0>        -0.1066
     31 C22        -2.4038   -4.9971    3.0600 C.3       1 <0>         0.0753
     32 H2         -3.1487   -4.6188    2.3599 H         1 <0>         0.1327
     33 C23        -3.0469   -6.0427    3.9732 C.3       1 <0>        -0.0473
     34 N4         -4.2255   -5.4611    4.6295 N.4       1 <0>        -0.5049
     35 C24        -4.8430   -6.4650    5.5063 C.3       1 <0>         0.0890
     36 C25        -6.0521   -5.8684    6.1795 C.2       1 <0>        -0.3280
     37 C26        -6.0616   -5.1881    7.4016 C.2       1 <0>         0.0700
     38 N5         -7.2913   -4.8202    7.6550 N.2       1 <0>        -0.2700
     39 N6         -8.1044   -5.2554    6.6006 N.pl3     1 <0>        -0.3484
     40 C27        -7.3194   -5.8910    5.7058 C.2       1 <0>         0.1044
     41 C28        -9.5507   -5.0515    6.4867 C.3       1 <0>         0.1189
     42 C29       -10.2429   -5.5981    7.7369 C.3       1 <0>        -0.1702
     43 O4         -1.9020   -3.9179    3.8509 O.3       1 <0>        -0.5500
     44 H3          1.0039    1.9031    0.0027 H         1 <0>         0.0645
     45 H4         -0.5459    1.8868   -0.8726 H         1 <0>         0.0644
     46 H5         -0.5289    1.8773    0.9072 H         1 <0>         0.0754
     47 H6          0.5293   -0.3651    0.8851 H         1 <0>         0.0610
     48 H7         -1.0205   -0.3814    0.0098 H         1 <0>         0.0600
     49 H8          1.0417    0.1622   -1.8418 H         1 <0>         0.4055
     50 H9         -0.1880   -2.4107    0.3632 H         1 <0>         0.1343
     51 H10         1.8754   -1.5813   -3.2862 H         1 <0>         0.1413
     52 H11         4.1740   -3.8908   -3.0379 H         1 <0>         0.0959
     53 H12         4.0269   -5.2748   -4.1474 H         1 <0>         0.0872
     54 H13         3.9913   -2.3494   -4.9998 H         1 <0>         0.0797
     55 H14         5.4134   -3.4112   -5.0874 H         1 <0>         0.0993
     56 H15         4.4075   -3.4083   -7.2720 H         1 <0>         0.0936
     57 H16         4.0219   -4.9783   -6.5300 H         1 <0>         0.0862
     58 H17         2.1734   -2.5450   -6.5650 H         1 <0>         0.1367
     59 H18         2.0214   -3.9713   -7.6235 H         1 <0>         0.1378
     60 H19        -0.8146   -3.7203    1.4833 H         1 <0>         0.4046
     61 H20         0.2769   -5.1705    3.7261 H         1 <0>         0.0815
     62 H21        -0.5710   -6.7067    4.0246 H         1 <0>         0.0800
     63 H22         0.0152   -8.7112    2.7825 H         1 <0>         0.1120
     64 H23         1.7765   -9.9211    1.5590 H         1 <0>         0.1193
     65 H24         3.6779   -8.6867    0.5977 H         1 <0>         0.1197
     66 H25         3.8176   -6.2423    0.8592 H         1 <0>         0.1162
     67 H26         2.0519   -5.0313    2.0755 H         1 <0>         0.1095
     68 H27        -3.3500   -6.9057    3.3804 H         1 <0>         0.1472
     69 H28        -2.3275   -6.3561    4.7297 H         1 <0>         0.1418
     70 H29        -3.9449   -4.6622    5.1783 H         1 <0>         0.4312
     71 H30        -5.1461   -7.3280    4.9135 H         1 <0>         0.1341
     72 H31        -4.1236   -6.7785    6.2628 H         1 <0>         0.1373
     73 H32        -5.2023   -4.9991    8.0279 H         1 <0>         0.1921
     74 H33        -7.6447   -6.3397    4.7788 H         1 <0>         0.1849
     75 H34        -9.7610   -3.9863    6.3913 H         1 <0>         0.0976
     76 H35        -9.9233   -5.5756    5.6066 H         1 <0>         0.1056
     77 H36       -11.3189   -5.4464    7.6521 H         1 <0>         0.0861
     78 H37       -10.0326   -6.6634    7.8322 H         1 <0>         0.0636
     79 H38        -9.8703   -5.0740    8.6170 H         1 <0>         0.0745
     80 H39        -1.2333   -4.1820    4.4976 H         1 <0>         0.3914
     81 H40        -4.8915   -5.1710    3.9292 H         1 <0>         0.4255
@<TRIPOS>BOND
     1    1    2 1
     2    1   44 1
     3    1   45 1
     4    1   46 1
     5    2    3 1
     6    2   47 1
     7    2   48 1
     8    3    4 1
     9    3   49 1
    10    4    9 ar
    11    4    5 ar
    12    5    6 ar
    13    5   50 1
    14    6    7 ar
    15    6   19 1
    16    7    8 ar
    17    7   18 1
    18    8    9 ar
    19    8   10 1
    20    9   51 1
    21   10   15 1
    22   10   11 1
    23   11   12 1
    24   11   52 1
    25   11   53 1
    26   12   13 1
    27   12   54 1
    28   12   55 1
    29   13   14 1
    30   13   56 1
    31   13   57 1
    32   14   15 1
    33   14   58 1
    34   14   59 1
    35   15   16 2
    36   15   17 2
    37   19   20 2
    38   19   21 am
    39   21   22 1
    40   21   60 1
    41   22   23 1
    42   22   24 1
    43   22   31 1
    44   24   25 1
    45   24   61 1
    46   24   62 1
    47   25   30 ar
    48   25   26 ar
    49   26   27 ar
    50   26   63 1
    51   27   28 ar
    52   27   64 1
    53   28   29 ar
    54   28   65 1
    55   29   30 ar
    56   29   66 1
    57   30   67 1
    58   31   32 1
    59   31   33 1
    60   31   43 1
    61   33   34 1
    62   33   68 1
    63   33   69 1
    64   34   35 1
    65   34   70 1
    66   34   81 1
    67   35   36 1
    68   35   71 1
    69   35   72 1
    70   36   40 2
    71   36   37 1
    72   37   38 2
    73   37   73 1
    74   38   39 1
    75   39   40 1
    76   39   41 1
    77   40   74 1
    78   41   42 1
    79   41   75 1
    80   41   76 1
    81   42   77 1
    82   42   78 1
    83   42   79 1
    84   43   80 1
@<TRIPOS>MOLECULE
CHEMBL254485__1
   80    83     0     0     0
SMALL
USER_CHARGES

@<TRIPOS>ATOM
      1 C1         -0.0187    1.5258    0.0104 C.3       1 <0>        -0.1658
      2 C2          0.0021   -0.0041    0.0020 C.3       1 <0>         0.1164
      3 N1         -1.3723   -0.5112    0.0124 N.pl3     1 <0>        -0.7440
      4 C3         -1.6092   -1.8893    0.0073 C.ar      1 <0>         0.2092
      5 C4         -0.5428   -2.7741   -0.0019 C.ar      1 <0>        -0.1345
      6 C5         -0.7792   -4.1505   -0.0071 C.ar      1 <0>        -0.1154
      7 C6         -2.0912   -4.6295   -0.0029 C.ar      1 <0>         0.1072
      8 C7         -3.1545   -3.7348    0.0064 C.ar      1 <0>         0.1537
      9 C8         -2.9132   -2.3687    0.0172 C.ar      1 <0>        -0.1314
     10 N2         -4.4692   -4.2121    0.0101 N.pl3     1 <0>        -0.9474
     11 C9         -5.2232   -4.3673   -1.2428 C.3       1 <0>         0.1121
     12 C10        -6.5105   -3.5486   -1.1673 C.3       1 <0>        -0.1557
     13 C11        -7.4325   -4.0915   -0.0780 C.3       1 <0>        -0.1131
     14 C12        -6.8402   -3.7851    1.3024 C.3       1 <0>        -0.6111
     15 S1         -5.2271   -4.6288    1.4322 S.o2      1 <0>         2.5848
     16 O1         -5.3954   -6.0380    1.3617 O.2       1 <0>        -0.9365
     17 O2         -4.4396   -4.0381    2.4570 O.2       1 <0>        -0.9436
     18 F1         -2.3260   -5.9599   -0.0083 F         1 <0>        -0.1077
     19 C13         0.3550   -5.0969   -0.0174 C.2       1 <0>         0.5578
     20 O3          0.1471   -6.2947   -0.0218 O.2       1 <0>        -0.4944
     21 N3          1.6202   -4.6325   -0.0219 N.am      1 <0>        -0.7175
     22 C14         2.7450   -5.5711   -0.0321 C.3       1 <0>         0.1242
     23 H1          2.4877   -6.4529    0.5546 H         1 <0>         0.1013
     24 C15         3.0485   -5.9877   -1.4727 C.3       1 <0>        -0.1001
     25 C16         1.8799   -6.7597   -2.0291 C.ar      1 <0>        -0.0662
     26 C17         1.8260   -8.1332   -1.8822 C.ar      1 <0>        -0.1065
     27 C18         0.7541   -8.8413   -2.3926 C.ar      1 <0>        -0.1118
     28 C19        -0.2640   -8.1759   -3.0495 C.ar      1 <0>        -0.1168
     29 C20        -0.2106   -6.8024   -3.1956 C.ar      1 <0>        -0.1104
     30 C21         0.8592   -6.0937   -2.6814 C.ar      1 <0>        -0.1089
     31 C22         3.9773   -4.8969    0.5742 C.3       1 <0>         0.1028
     32 H2          3.7339   -4.5211    1.5680 H         1 <0>         0.1174
     33 C23         5.1157   -5.9139    0.6783 C.3       1 <0>         0.0284
     34 N4          6.2582   -5.3010    1.3688 N.3       1 <0>        -0.6816
     35 C24         7.3728   -6.2505    1.4873 C.3       1 <0>         0.1396
     36 C25         8.5239   -5.5878    2.1993 C.2       1 <0>        -0.2418
     37 C26         9.5580   -4.8646    1.5960 C.2       1 <0>         0.0523
     38 N5         10.3653   -4.4444    2.5360 N.2       1 <0>        -0.2943
     39 N6          9.8696   -4.8876    3.7690 N.pl3     1 <0>        -0.3716
     40 C27         8.7364   -5.5821    3.5356 C.2       1 <0>         0.0773
     41 C28        10.4720   -4.6366    5.0806 C.3       1 <0>         0.1291
     42 C29        11.9258   -5.1135    5.0739 C.3       1 <0>        -0.1658
     43 O4          4.3843   -3.8100   -0.2595 O.3       1 <0>        -0.5556
     44 H3          1.0039    1.9031    0.0027 H         1 <0>         0.0756
     45 H4         -0.5459    1.8868   -0.8726 H         1 <0>         0.0620
     46 H5         -0.5289    1.8773    0.9072 H         1 <0>         0.0626
     47 H6          0.5123   -0.3556   -0.8948 H         1 <0>         0.0625
     48 H7          0.5293   -0.3651    0.8851 H         1 <0>         0.0631
     49 H8         -2.1181    0.1091    0.0229 H         1 <0>         0.4028
     50 H9          0.4702   -2.3997   -0.0055 H         1 <0>         0.1371
     51 H10        -3.7415   -1.6757    0.0291 H         1 <0>         0.1383
     52 H11        -4.6172   -4.0153   -2.0776 H         1 <0>         0.0962
     53 H12        -5.4695   -5.4188   -1.3907 H         1 <0>         0.0858
     54 H13        -6.2633   -2.5107   -0.9440 H         1 <0>         0.0794
     55 H14        -7.0231   -3.5961   -2.1281 H         1 <0>         0.0975
     56 H15        -8.4120   -3.6212   -0.1647 H         1 <0>         0.0912
     57 H16        -7.5374   -5.1699   -0.1962 H         1 <0>         0.0853
     58 H17        -6.7050   -2.7092    1.4136 H         1 <0>         0.1359
     59 H18        -7.5098   -4.1539    2.0795 H         1 <0>         0.1358
     60 H19         1.7860   -3.6768   -0.0183 H         1 <0>         0.4019
     61 H20         3.2188   -5.0986   -2.0798 H         1 <0>         0.0760
     62 H21         3.9395   -6.6152   -1.4893 H         1 <0>         0.0839
     63 H22         2.6215   -8.6530   -1.3690 H         1 <0>         0.1135
     64 H23         0.7123   -9.9144   -2.2785 H         1 <0>         0.1160
     65 H24        -1.1011   -8.7293   -3.4489 H         1 <0>         0.1150
     66 H25        -1.0059   -6.2825   -3.7091 H         1 <0>         0.1121
     67 H26         0.8992   -5.0202   -2.7923 H         1 <0>         0.1081
     68 H27         4.7755   -6.7837    1.2402 H         1 <0>         0.0847
     69 H28         5.4190   -6.2233   -0.3219 H         1 <0>         0.0391
     70 H29         6.5515   -4.4556    0.9026 H         1 <0>         0.3488
     71 H30         7.0483   -7.1227    2.0548 H         1 <0>         0.0759
     72 H31         7.6918   -6.5623    0.4928 H         1 <0>         0.0374
     73 H32         9.6707   -4.6841    0.5372 H         1 <0>         0.1787
     74 H33         8.1123   -6.0516    4.2816 H         1 <0>         0.1726
     75 H34        10.4410   -3.5686    5.2962 H         1 <0>         0.0850
     76 H35         9.9156   -5.1780    5.8456 H         1 <0>         0.0962
     77 H36        11.9568   -6.1815    4.8582 H         1 <0>         0.0602
     78 H37        12.4823   -4.5720    4.3088 H         1 <0>         0.0705
     79 H38        12.3740   -4.9267    6.0497 H         1 <0>         0.0758
     80 H39         4.6167   -4.0715   -1.1611 H         1 <0>         0.3733
@<TRIPOS>BOND
     1    1    2 1
     2    1   44 1
     3    1   45 1
     4    1   46 1
     5    2    3 1
     6    2   47 1
     7    2   48 1
     8    3    4 1
     9    3   49 1
    10    4    9 ar
    11    4    5 ar
    12    5    6 ar
    13    5   50 1
    14    6    7 ar
    15    6   19 1
    16    7    8 ar
    17    7   18 1
    18    8    9 ar
    19    8   10 1
    20    9   51 1
    21   10   15 1
    22   10   11 1
    23   11   12 1
    24   11   52 1
    25   11   53 1
    26   12   13 1
    27   12   54 1
    28   12   55 1
    29   13   14 1
    30   13   56 1
    31   13   57 1
    32   14   15 1
    33   14   58 1
    34   14   59 1
    35   15   16 2
    36   15   17 2
    37   19   20 2
    38   19   21 am
    39   21   22 1
    40   21   60 1
    41   22   23 1
    42   22   24 1
    43   22   31 1
    44   24   25 1
    45   24   61 1
    46   24   62 1
    47   25   30 ar
    48   25   26 ar
    49   26   27 ar
    50   26   63 1
    51   27   28 ar
    52   27   64 1
    53   28   29 ar
    54   28   65 1
    55   29   30 ar
    56   29   66 1
    57   30   67 1
    58   31   32 1
    59   31   33 1
    60   31   43 1
    61   33   34 1
    62   33   68 1
    63   33   69 1
    64   34   35 1
    65   34   70 1
    66   35   36 1
    67   35   71 1
    68   35   72 1
    69   36   40 2
    70   36   37 1
    71   37   38 2
    72   37   73 1
    73   38   39 1
    74   39   40 1
    75   39   41 1
    76   40   74 1
    77   41   42 1
    78   41   75 1
    79   41   76 1
    80   42   77 1
    81   42   78 1
    82   42   79 1
    83   43   80 1
@<TRIPOS>MOLECULE
CHEMBL1210352
   72    75     0     0     0
SMALL
USER_CHARGES

@<TRIPOS>ATOM
      1 C1         -0.2703    1.9376   -0.2393 C.ar      1 <0>        -0.1084
      2 C2          0.9688    2.5490   -0.1964 C.ar      1 <0>        -0.1085
      3 C3          2.1190    1.7854   -0.2652 C.ar      1 <0>        -0.1078
      4 C4          2.0303    0.4104   -0.3764 C.ar      1 <0>        -0.0817
      5 C5          0.7913   -0.2011   -0.4183 C.ar      1 <0>        -0.1071
      6 C6         -0.3590    0.5626   -0.3509 C.ar      1 <0>        -0.1110
      7 C7          3.2843   -0.4219   -0.4524 C.3       1 <0>        -0.1011
      8 C8          3.7182   -0.8204    0.9596 C.3       1 <0>         0.1268
      9 H1          2.8933   -1.3225    1.4651 H         1 <0>         0.1113
     10 C9          4.9174   -1.7670    0.8765 C.3       1 <0>         0.0749
     11 H2          5.2820   -1.9805    1.8813 H         1 <0>         0.1348
     12 C10         4.4912   -3.0718    0.2006 C.3       1 <0>        -0.0480
     13 N1          5.6086   -4.0251    0.2280 N.4       1 <0>        -0.5051
     14 C11         5.1994   -5.2779   -0.4209 C.3       1 <0>         0.0466
     15 C12         6.3457   -6.2558   -0.3929 C.ar      1 <0>        -0.1684
     16 C13         7.2589   -6.2804   -1.4306 C.ar      1 <0>        -0.0602
     17 C14         8.3102   -7.1773   -1.4049 C.ar      1 <0>        -0.1108
     18 C15         8.4488   -8.0496   -0.3412 C.ar      1 <0>        -0.0359
     19 C16         7.5364   -8.0244    0.6967 C.ar      1 <0>        -0.1745
     20 C17         6.4872   -7.1243    0.6730 C.ar      1 <0>        -0.0436
     21 C18         7.6873   -8.9755    1.8558 C.3       1 <0>         0.5061
     22 F1          8.8156   -9.7782    1.6567 F         1 <0>        -0.1689
     23 F2          7.8367   -8.2466    3.0406 F         1 <0>        -0.1728
     24 F3          6.5495   -9.7845    1.9464 F         1 <0>        -0.1702
     25 O1          5.9573   -1.1526    0.1129 O.3       1 <0>        -0.5492
     26 N2          4.0943    0.3792    1.7118 N.am      1 <0>        -0.7230
     27 C19         3.1490    1.1012    2.3455 C.2       1 <0>         0.5633
     28 O2          1.9844    0.7569    2.2930 O.2       1 <0>        -0.4960
     29 C20         3.5285    2.3119    3.1046 C.ar      1 <0>        -0.0992
     30 C21         4.8648    2.7126    3.1616 C.ar      1 <0>        -0.0987
     31 C22         5.2166    3.8432    3.8703 C.ar      1 <0>        -0.0889
     32 C23         4.2499    4.5824    4.5261 C.ar      1 <0>        -0.1075
     33 C24         2.9169    4.1919    4.4760 C.ar      1 <0>         0.1571
     34 C25         2.5523    3.0605    3.7612 C.ar      1 <0>        -0.0945
     35 N3          1.9434    4.9422    5.1410 N.pl3     1 <0>        -0.8718
     36 C26         2.1462    6.3061    5.3672 C.ar      1 <0>         0.0871
     37 C27         1.5401    6.9412    6.4492 C.ar      1 <0>        -0.1423
     38 C28         1.7718    8.2943    6.6319 C.ar      1 <0>        -0.1214
     39 C29         2.5903    8.9656    5.7421 C.ar      1 <0>         0.0926
     40 N4          3.1489    8.3357    4.7274 N.ar      1 <0>        -0.4495
     41 C30         2.9597    7.0478    4.5200 C.ar      1 <0>         0.0954
     42 S1          0.5494    4.2149    5.6609 S.o2      1 <0>         2.6455
     43 O3         -0.3443    4.2133    4.5561 O.2       1 <0>        -0.9168
     44 O4          0.9382    3.0220    6.3280 O.2       1 <0>        -0.9189
     45 H3         -1.1689    2.5337   -0.1810 H         1 <0>         0.1212
     46 H4          1.0381    3.6233   -0.1096 H         1 <0>         0.1186
     47 H5          3.0871    2.2632   -0.2325 H         1 <0>         0.1109
     48 H6          0.7219   -1.2753   -0.5055 H         1 <0>         0.1121
     49 H7         -1.3271    0.0849   -0.3841 H         1 <0>         0.1200
     50 H8          3.0897   -1.3194   -1.0396 H         1 <0>         0.0798
     51 H9          4.0768    0.1575   -0.9261 H         1 <0>         0.0826
     52 H10         3.6393   -3.4952    0.7327 H         1 <0>         0.1498
     53 H11         4.2105   -2.8707   -0.8332 H         1 <0>         0.1438
     54 H12         6.3972   -3.6332   -0.2645 H         1 <0>         0.4328
     55 H13         4.3475   -5.7013    0.1111 H         1 <0>         0.1435
     56 H14         4.9187   -5.0767   -1.4548 H         1 <0>         0.1446
     57 H15         7.1506   -5.5990   -2.2615 H         1 <0>         0.1437
     58 H16         9.0232   -7.1970   -2.2159 H         1 <0>         0.1511
     59 H17         9.2699   -8.7509   -0.3214 H         1 <0>         0.1530
     60 H18         5.7764   -7.1020    1.4858 H         1 <0>         0.1441
     61 H19         5.7028   -0.9342   -0.7941 H         1 <0>         0.3919
     62 H20         5.0236    0.6539    1.7536 H         1 <0>         0.4068
     63 H21         5.6232    2.1375    2.6513 H         1 <0>         0.1324
     64 H22         6.2508    4.1513    3.9131 H         1 <0>         0.1439
     65 H23         4.5314    5.4662    5.0794 H         1 <0>         0.1417
     66 H24         1.5165    2.7580    3.7169 H         1 <0>         0.1392
     67 H25         0.9050    6.3919    7.1284 H         1 <0>         0.1407
     68 H26         1.3182    8.8192    7.4596 H         1 <0>         0.1537
     69 H27         2.7742   10.0208    5.8801 H         1 <0>         0.1704
     70 H28         3.4383    6.5654    3.6806 H         1 <0>         0.1675
     71 H29         0.0062    5.0174    6.5936 H         1 <0>        -0.3489
     72 H30         5.8685   -4.2113    1.1850 H         1 <0>         0.4297
@<TRIPOS>BOND
     1    1    6 ar
     2    1    2 ar
     3    1   45 1
     4    2    3 ar
     5    2   46 1
     6    3    4 ar
     7    3   47 1
     8    4    5 ar
     9    4    7 1
    10    5    6 ar
    11    5   48 1
    12    6   49 1
    13    7    8 1
    14    7   50 1
    15    7   51 1
    16    8    9 1
    17    8   10 1
    18    8   26 1
    19   10   11 1
    20   10   12 1
    21   10   25 1
    22   12   13 1
    23   12   52 1
    24   12   53 1
    25   13   14 1
    26   13   54 1
    27   13   72 1
    28   14   15 1
    29   14   55 1
    30   14   56 1
    31   15   20 ar
    32   15   16 ar
    33   16   17 ar
    34   16   57 1
    35   17   18 ar
    36   17   58 1
    37   18   19 ar
    38   18   59 1
    39   19   20 ar
    40   19   21 1
    41   20   60 1
    42   21   22 1
    43   21   23 1
    44   21   24 1
    45   25   61 1
    46   26   27 am
    47   26   62 1
    48   27   28 2
    49   27   29 1
    50   29   34 ar
    51   29   30 ar
    52   30   31 ar
    53   30   63 1
    54   31   32 ar
    55   31   64 1
    56   32   33 ar
    57   32   65 1
    58   33   34 ar
    59   33   35 1
    60   34   66 1
    61   35   36 1
    62   35   42 1
    63   36   41 ar
    64   36   37 ar
    65   37   38 ar
    66   37   67 1
    67   38   39 ar
    68   38   68 1
    69   39   40 ar
    70   39   69 1
    71   40   41 ar
    72   41   70 1
    73   42   43 2
    74   42   44 2
    75   42   71 1
@<TRIPOS>MOLECULE
CHEMBL244416
   60    63     0     0     0
SMALL
USER_CHARGES

@<TRIPOS>ATOM
      1 C1         -0.3931   -2.4313   -1.1544 C.3       1 <0>        -0.1869
      2 C2         -1.2146   -1.9717    0.0518 C.3       1 <0>        -0.0184
      3 N1         -1.2663   -0.5039    0.0784 N.4       1 <0>        -0.3821
      4 C3         -1.9392   -0.0598    1.3064 C.3       1 <0>         0.0387
      5 C4         -1.1109   -0.4514    2.5029 C.ar      1 <0>        -0.1573
      6 C5         -1.3076   -1.6786    3.1080 C.ar      1 <0>        -0.0988
      7 C6         -0.5478   -2.0378    4.2055 C.ar      1 <0>        -0.1131
      8 C7          0.4091   -1.1700    4.6976 C.ar      1 <0>        -0.0853
      9 C8          0.6065    0.0568    4.0919 C.ar      1 <0>        -0.1127
     10 C9         -0.1504    0.4142    2.9918 C.ar      1 <0>        -0.0936
     11 C10        -2.0113   -0.0188   -1.0910 C.3       1 <0>         0.0392
     12 C11        -1.9439    1.4859   -1.1408 C.ar      1 <0>        -0.1569
     13 C12        -2.9707    2.2398   -0.6011 C.ar      1 <0>        -0.0894
     14 C13        -2.9148    3.6178   -0.6441 C.ar      1 <0>        -0.0947
     15 C14        -1.8202    4.2505   -1.2327 C.ar      1 <0>         0.0154
     16 C15        -0.7880    3.4851   -1.7746 C.ar      1 <0>        -0.0961
     17 C16        -0.8527    2.1078   -1.7209 C.ar      1 <0>        -0.0920
     18 C17        -1.7544    5.7298   -1.2825 C.2       1 <0>        -0.2082
     19 C18        -0.7819    6.4223   -0.6039 C.2       1 <0>         0.0309
     20 C19        -0.7971    7.8397   -0.6689 C.ar      1 <0>        -0.1613
     21 C20         0.2802    8.5854   -0.1662 C.ar      1 <0>        -0.1146
     22 C21         0.2691    9.9582   -0.2731 C.ar      1 <0>         0.0894
     23 C22        -0.8132   10.6098   -0.8727 C.ar      1 <0>         0.1764
     24 C23        -1.8886    9.8841   -1.3546 C.ar      1 <0>        -0.1997
     25 C24        -1.8955    8.5019   -1.2478 C.ar      1 <0>         0.1561
     26 O1         -2.9643    7.7873   -1.6796 O.3       1 <0>        -0.2691
     27 C25        -2.7252    6.5106   -2.0659 C.2       1 <0>         0.5200
     28 O2         -3.2954    6.0240   -3.0252 O.2       1 <0>        -0.4308
     29 O3         -0.8091   11.9635   -0.9825 O.3       1 <0>        -0.2882
     30 C26        -1.9448   12.5673   -1.6052 C.3       1 <0>         0.0165
     31 O4          1.3149   10.6835    0.2070 O.3       1 <0>        -0.2977
     32 C27         2.3877    9.9554    0.8080 C.3       1 <0>         0.0220
     33 H1         -0.2730   -3.5141   -1.1209 H         1 <0>         0.1059
     34 H2         -0.9084   -2.1511   -2.0731 H         1 <0>         0.0811
     35 H3          0.5875   -1.9560   -1.1284 H         1 <0>         0.0788
     36 H4         -2.2265   -2.3695   -0.0250 H         1 <0>         0.1300
     37 H5         -0.7497   -2.3356    0.9680 H         1 <0>         0.1323
     38 H6         -2.0569    1.0236    1.2848 H         1 <0>         0.1370
     39 H7         -2.9200   -0.5305    1.3738 H         1 <0>         0.1350
     40 H8         -2.0552   -2.3566    2.7235 H         1 <0>         0.1311
     41 H9         -0.7020   -2.9963    4.6787 H         1 <0>         0.1360
     42 H10         1.0023   -1.4504    5.5555 H         1 <0>         0.1356
     43 H11         1.3539    0.7349    4.4766 H         1 <0>         0.1354
     44 H12         0.0064    1.3712    2.5163 H         1 <0>         0.1296
     45 H13        -1.5720   -0.4324   -1.9988 H         1 <0>         0.1406
     46 H14        -3.0521   -0.3335   -1.0149 H         1 <0>         0.1370
     47 H15        -3.8179    1.7487   -0.1456 H         1 <0>         0.1358
     48 H16        -3.7174    4.2053   -0.2231 H         1 <0>         0.1357
     49 H17         0.0622    3.9695   -2.2316 H         1 <0>         0.1380
     50 H18        -0.0521    1.5141   -2.1367 H         1 <0>         0.1344
     51 H19        -0.0254    5.9017   -0.0353 H         1 <0>         0.1516
     52 H20         1.1144    8.0847    0.3027 H         1 <0>         0.1539
     53 H21        -2.7223   10.3945   -1.8138 H         1 <0>         0.1605
     54 H22        -2.0437   12.1911   -2.6234 H         1 <0>         0.0643
     55 H23        -2.8430   12.3221   -1.0384 H         1 <0>         0.0645
     56 H24        -1.8140   13.6491   -1.6286 H         1 <0>         0.1126
     57 H25         3.1541   10.6521    1.1477 H         1 <0>         0.1086
     58 H26         2.0100    9.3878    1.6584 H         1 <0>         0.0581
     59 H27         2.8172    9.2712    0.0763 H         1 <0>         0.0581
     60 H28        -0.3278   -0.1338    0.0566 H         1 <0>         0.4209
@<TRIPOS>BOND
     1    1    2 1
     2    1   33 1
     3    1   34 1
     4    1   35 1
     5    2    3 1
     6    2   36 1
     7    2   37 1
     8    3    4 1
     9    3   11 1
    10    3   60 1
    11    4    5 1
    12    4   38 1
    13    4   39 1
    14    5   10 ar
    15    5    6 ar
    16    6    7 ar
    17    6   40 1
    18    7    8 ar
    19    7   41 1
    20    8    9 ar
    21    8   42 1
    22    9   10 ar
    23    9   43 1
    24   10   44 1
    25   11   12 1
    26   11   45 1
    27   11   46 1
    28   12   17 ar
    29   12   13 ar
    30   13   14 ar
    31   13   47 1
    32   14   15 ar
    33   14   48 1
    34   15   16 ar
    35   15   18 1
    36   16   17 ar
    37   16   49 1
    38   17   50 1
    39   18   27 1
    40   18   19 2
    41   19   20 1
    42   19   51 1
    43   20   25 ar
    44   20   21 ar
    45   21   22 ar
    46   21   52 1
    47   22   23 ar
    48   22   31 1
    49   23   24 ar
    50   23   29 1
    51   24   25 ar
    52   24   53 1
    53   25   26 1
    54   26   27 1
    55   27   28 2
    56   29   30 1
    57   30   54 1
    58   30   55 1
    59   30   56 1
    60   31   32 1
    61   32   57 1
    62   32   58 1
    63   32   59 1
@<TRIPOS>MOLECULE
CHEMBL567430
   51    55     0     0     0
SMALL
USER_CHARGES

@<TRIPOS>ATOM
      1 C1         -0.0167    1.3788    0.0096 C.ar      1 <0>        -0.1173
      2 C2          1.1677    2.0877    0.0021 C.ar      1 <0>        -0.0914
      3 C3          2.3836    1.4075   -0.0131 C.ar      1 <0>        -0.0612
      4 C4          2.3965    0.0139   -0.0207 C.ar      1 <0>        -0.0547
      5 C5          1.2065   -0.6846   -0.0130 C.ar      1 <0>        -0.0744
      6 C6          0.0021   -0.0041    0.0020 C.ar      1 <0>        -0.0987
      7 C7          1.2188   -2.1915   -0.0217 C.3       1 <0>         0.2515
      8 C8          0.0663   -2.7332    0.7762 C.2       1 <0>         0.3131
      9 N1         -1.2030   -2.6037    0.6287 N.2       1 <0>        -0.3132
     10 O1         -2.0543   -3.2350    1.5775 O.3       1 <0>        -0.1909
     11 C9         -1.5419   -4.4493    2.1295 C.3       1 <0>         0.0100
     12 C10        -0.1765   -4.1912    2.7862 C.3       1 <0>         0.0818
     13 N2          0.6484   -3.4778    1.7986 N.pl3     1 <0>        -0.5976
     14 C11         2.0060   -3.4155    1.6959 C.2       1 <0>         0.6158
     15 N3          2.4077   -2.7036    0.6843 N.2       1 <0>        -0.5797
     16 N4          2.8623   -4.0410    2.5709 N.pl3     1 <0>        -0.8268
     17 C12         1.1783   -2.7114   -1.4356 C.ar      1 <0>        -0.0922
     18 C13        -0.0376   -2.9679   -2.0420 C.ar      1 <0>        -0.0748
     19 C14        -0.0774   -3.4450   -3.3379 C.ar      1 <0>        -0.1220
     20 C15         1.1038   -3.6662   -4.0310 C.ar      1 <0>         0.1110
     21 C16         2.3224   -3.4076   -3.4204 C.ar      1 <0>        -0.1936
     22 C17         2.3568   -2.9258   -2.1262 C.ar      1 <0>        -0.0373
     23 O2          1.0673   -4.1359   -5.3057 O.3       1 <0>        -0.3098
     24 C18         2.3222   -4.3401   -5.9581 C.3       1 <0>         0.6038
     25 F1          3.0771   -5.2707   -5.2361 F         1 <0>        -0.1646
     26 F2          2.1017   -4.8223   -7.2527 F         1 <0>        -0.1302
     27 F3          3.0162   -3.1272   -6.0241 F         1 <0>        -0.1636
     28 C19         3.6599    2.1640   -0.0217 C.ar      1 <0>        -0.1138
     29 C20         3.8652    3.1994   -0.9362 C.ar      1 <0>        -0.0372
     30 C21         5.0735    3.8751   -0.9039 C.ar      1 <0>        -0.1802
     31 C22         6.0305    3.5078    0.0235 C.ar      1 <0>         0.1354
     32 N5          5.8105    2.5251    0.8760 N.ar      1 <0>        -0.5113
     33 C23         4.6733    1.8564    0.8881 C.ar      1 <0>         0.3183
     34 F4          4.4902    0.8619    1.7841 F         1 <0>        -0.1046
     35 H1         -0.9597    1.9050    0.0260 H         1 <0>         0.1307
     36 H2          1.1519    3.1676    0.0077 H         1 <0>         0.1265
     37 H3          3.3362   -0.5184   -0.0328 H         1 <0>         0.1355
     38 H4         -0.9270   -0.5547    0.0083 H         1 <0>         0.1398
     39 H5         -2.2376   -4.8285    2.8779 H         1 <0>         0.1273
     40 H6         -1.4280   -5.1878    1.3360 H         1 <0>         0.0705
     41 H7         -0.3030   -3.5772    3.6779 H         1 <0>         0.0924
     42 H8          0.2944   -5.1383    3.0494 H         1 <0>         0.1024
     43 H9          2.5072   -4.5605    3.3091 H         1 <0>         0.4096
     44 H10         3.8216   -3.9629    2.4501 H         1 <0>         0.4281
     45 H11        -0.9568   -2.7955   -1.5020 H         1 <0>         0.1495
     46 H12        -1.0273   -3.6459   -3.8109 H         1 <0>         0.1425
     47 H13         3.2434   -3.5791   -3.9579 H         1 <0>         0.1364
     48 H14         3.3050   -2.7201   -1.6520 H         1 <0>         0.1440
     49 H15         3.1007    3.4662   -1.6510 H         1 <0>         0.1477
     50 H16         5.2664    4.6808   -1.5967 H         1 <0>         0.1478
     51 H17         6.9736    4.0334    0.0505 H         1 <0>         0.1694
@<TRIPOS>BOND
     1    1    6 ar
     2    1    2 ar
     3    1   35 1
     4    2    3 ar
     5    2   36 1
     6    3    4 ar
     7    3   28 1
     8    4    5 ar
     9    4   37 1
    10    5    6 ar
    11    5    7 1
    12    6   38 1
    13    7   15 1
    14    7    8 1
    15    7   17 1
    16    8   13 1
    17    8    9 2
    18    9   10 1
    19   10   11 1
    20   11   12 1
    21   11   39 1
    22   11   40 1
    23   12   13 1
    24   12   41 1
    25   12   42 1
    26   13   14 1
    27   14   15 2
    28   14   16 1
    29   16   43 1
    30   16   44 1
    31   17   22 ar
    32   17   18 ar
    33   18   19 ar
    34   18   45 1
    35   19   20 ar
    36   19   46 1
    37   20   21 ar
    38   20   23 1
    39   21   22 ar
    40   21   47 1
    41   22   48 1
    42   23   24 1
    43   24   25 1
    44   24   26 1
    45   24   27 1
    46   28   33 ar
    47   28   29 ar
    48   29   30 ar
    49   29   49 1
    50   30   31 ar
    51   30   50 1
    52   31   32 ar
    53   31   51 1
    54   32   33 ar
    55   33   34 1
@<TRIPOS>MOLECULE
CHEMBL567430__1
   51    55     0     0     0
SMALL
USER_CHARGES

@<TRIPOS>ATOM
      1 C1         -0.0167    1.3788    0.0096 C.ar      1 <0>        -0.1169
      2 C2          1.1677    2.0877    0.0021 C.ar      1 <0>        -0.0916
      3 C3          2.3836    1.4075   -0.0131 C.ar      1 <0>        -0.0600
      4 C4          2.3965    0.0139   -0.0207 C.ar      1 <0>        -0.0549
      5 C5          1.2065   -0.6846   -0.0130 C.ar      1 <0>        -0.0744
      6 C6          0.0021   -0.0041    0.0020 C.ar      1 <0>        -0.1014
      7 C7          1.2188   -2.1915   -0.0217 C.3       1 <0>         0.2523
      8 C8          0.0509   -2.7243   -0.8031 C.2       1 <0>         0.3129
      9 N1         -1.2153   -2.6066   -0.6227 N.2       1 <0>        -0.3122
     10 O1         -2.0849   -3.2550   -1.5428 O.3       1 <0>        -0.1907
     11 C9         -1.5820   -3.3539   -2.8766 C.3       1 <0>         0.0101
     12 C10        -0.2310   -4.0865   -2.8742 C.3       1 <0>         0.0818
     13 N2          0.6130   -3.4302   -1.8634 N.pl3     1 <0>        -0.5976
     14 C11         1.9723   -3.3831   -1.7768 C.2       1 <0>         0.6146
     15 N3          2.3937   -2.6954   -0.7564 N.2       1 <0>        -0.5800
     16 N4          2.8114   -3.9986   -2.6753 N.pl3     1 <0>        -0.8275
     17 C12         1.2057   -2.7274    1.3867 C.ar      1 <0>        -0.0934
     18 C13         0.0021   -3.0016    2.0097 C.ar      1 <0>        -0.0728
     19 C14        -0.0126   -3.4925    3.3009 C.ar      1 <0>        -0.1226
     20 C15         1.1816   -3.7107    3.9724 C.ar      1 <0>         0.1115
     21 C16         2.3879   -3.4353    3.3450 C.ar      1 <0>        -0.1934
     22 C17         2.3974   -2.9494    2.0518 C.ar      1 <0>        -0.0355
     23 O2          1.1698   -4.1932    5.2428 O.3       1 <0>        -0.3100
     24 C18         2.4368   -4.3934    5.8726 C.3       1 <0>         0.6034
     25 F1          3.1220   -3.1755    5.9393 F         1 <0>        -0.1628
     26 F2          2.2415   -4.8901    7.1658 F         1 <0>        -0.1306
     27 F3          3.1873   -5.3106    5.1292 F         1 <0>        -0.1647
     28 C19         3.6599    2.1640   -0.0217 C.ar      1 <0>        -0.1145
     29 C20         3.8652    3.1994   -0.9362 C.ar      1 <0>        -0.0380
     30 C21         5.0735    3.8751   -0.9039 C.ar      1 <0>        -0.1810
     31 C22         6.0305    3.5078    0.0235 C.ar      1 <0>         0.1361
     32 N5          5.8105    2.5251    0.8760 N.ar      1 <0>        -0.5104
     33 C23         4.6733    1.8564    0.8881 C.ar      1 <0>         0.3197
     34 F4          4.4902    0.8619    1.7841 F         1 <0>        -0.1035
     35 H1         -0.9597    1.9050    0.0260 H         1 <0>         0.1307
     36 H2          1.1519    3.1676    0.0077 H         1 <0>         0.1267
     37 H3          3.3362   -0.5184   -0.0328 H         1 <0>         0.1359
     38 H4         -0.9270   -0.5547    0.0083 H         1 <0>         0.1385
     39 H5         -2.2924   -3.9068   -3.4912 H         1 <0>         0.1273
     40 H6         -1.4505   -2.3535   -3.2890 H         1 <0>         0.0702
     41 H7         -0.3769   -5.1347   -2.6130 H         1 <0>         0.0926
     42 H8          0.2360   -4.0085   -3.8560 H         1 <0>         0.1021
     43 H9          2.4420   -4.4993   -3.4195 H         1 <0>         0.4096
     44 H10         3.7728   -3.9322   -2.5651 H         1 <0>         0.4277
     45 H11        -0.9272   -2.8315    1.4865 H         1 <0>         0.1505
     46 H12        -0.9529   -3.7058    3.7873 H         1 <0>         0.1424
     47 H13         3.3189   -3.6043    3.8656 H         1 <0>         0.1365
     48 H14         3.3363   -2.7390    1.5614 H         1 <0>         0.1438
     49 H15         3.1007    3.4662   -1.6510 H         1 <0>         0.1464
     50 H16         5.2664    4.6808   -1.5967 H         1 <0>         0.1475
     51 H17         6.9736    4.0334    0.0505 H         1 <0>         0.1696
@<TRIPOS>BOND
     1    1    6 ar
     2    1    2 ar
     3    1   35 1
     4    2    3 ar
     5    2   36 1
     6    3    4 ar
     7    3   28 1
     8    4    5 ar
     9    4   37 1
    10    5    6 ar
    11    5    7 1
    12    6   38 1
    13    7   15 1
    14    7    8 1
    15    7   17 1
    16    8   13 1
    17    8    9 2
    18    9   10 1
    19   10   11 1
    20   11   12 1
    21   11   39 1
    22   11   40 1
    23   12   13 1
    24   12   41 1
    25   12   42 1
    26   13   14 1
    27   14   15 2
    28   14   16 1
    29   16   43 1
    30   16   44 1
    31   17   22 ar
    32   17   18 ar
    33   18   19 ar
    34   18   45 1
    35   19   20 ar
    36   19   46 1
    37   20   21 ar
    38   20   23 1
    39   21   22 ar
    40   21   47 1
    41   22   48 1
    42   23   24 1
    43   24   25 1
    44   24   26 1
    45   24   27 1
    46   28   33 ar
    47   28   29 ar
    48   29   30 ar
    49   29   49 1
    50   30   31 ar
    51   30   50 1
    52   31   32 ar
    53   31   51 1
    54   32   33 ar
    55   33   34 1
@<TRIPOS>MOLECULE
CHEMBL541170
   79    82     0     0     0
SMALL
USER_CHARGES

@<TRIPOS>ATOM
      1 C1         -0.0187    1.5258    0.0104 C.3       1 <0>        -0.1590
      2 C2          0.0021   -0.0041    0.0020 C.3       1 <0>         0.1843
      3 H1         -1.0205   -0.3814    0.0098 H         1 <0>         0.1006
      4 C3          0.7074   -0.4901   -1.2379 C.ar      1 <0>        -0.0968
      5 C4          2.0889   -0.5108   -1.2839 C.ar      1 <0>        -0.1180
      6 C5          2.7359   -0.9566   -2.4212 C.ar      1 <0>        -0.1148
      7 C6          2.0015   -1.3821   -3.5123 C.ar      1 <0>        -0.1155
      8 C7          0.6201   -1.3622   -3.4659 C.ar      1 <0>        -0.1121
      9 C8         -0.0269   -0.9205   -2.3270 C.ar      1 <0>        -0.1057
     10 N1          0.7106   -0.4894    1.1889 N.am      1 <0>        -0.7182
     11 C9          0.0512   -0.6335    2.3554 C.2       1 <0>         0.5569
     12 O1         -1.1314   -0.3608    2.4228 O.2       1 <0>        -0.5225
     13 C10         0.7663   -1.1233    3.5533 C.ar      1 <0>        -0.1318
     14 C11         2.1269   -1.4317    3.4791 C.ar      1 <0>        -0.0557
     15 C12         2.7960   -1.8892    4.5966 C.ar      1 <0>        -0.1281
     16 C13         2.1265   -2.0451    5.7944 C.ar      1 <0>        -0.0678
     17 C14         0.7663   -1.7408    5.8823 C.ar      1 <0>        -0.1490
     18 C15         0.0863   -1.2728    4.7598 C.ar      1 <0>         0.0037
     19 C16         0.0508   -1.9093    7.1652 C.2       1 <0>         0.5656
     20 O2         -1.1331   -1.6440    7.2402 O.2       1 <0>        -0.4930
     21 N2          0.7112   -2.3568    8.2515 N.am      1 <0>        -0.7395
     22 C17         0.0023   -2.5237    9.5226 C.3       1 <0>         0.1243
     23 H2         -0.7514   -1.7428    9.6235 H         1 <0>         0.1172
     24 C18        -0.6766   -3.8946    9.5518 C.3       1 <0>        -0.0867
     25 C19        -1.7443   -3.9491    8.4897 C.ar      1 <0>        -0.0218
     26 C20        -3.0350   -3.5545    8.7872 C.ar      1 <0>        -0.1524
     27 C21        -4.0170   -3.6046    7.8122 C.ar      1 <0>         0.1431
     28 C22        -3.7054   -4.0497    6.5391 C.ar      1 <0>        -0.1879
     29 C23        -2.4123   -4.4443    6.2421 C.ar      1 <0>         0.1416
     30 C24        -1.4308   -4.3884    7.2173 C.ar      1 <0>        -0.1586
     31 F1         -2.1068   -4.8789    5.0000 F         1 <0>        -0.1293
     32 F2         -5.2788   -3.2196    8.1035 F         1 <0>        -0.1287
     33 C25         0.9987   -2.4233   10.6793 C.3       1 <0>         0.0786
     34 H3          0.4713   -2.5475   11.6250 H         1 <0>         0.1447
     35 C26         1.6776   -1.0525   10.6501 C.3       1 <0>        -0.0498
     36 N3          2.6343   -0.9561   11.7607 N.4       1 <0>        -0.5036
     37 C27         3.2861    0.3601   11.7326 C.3       1 <0>         0.0473
     38 C28         4.2675    0.4590   12.8719 C.ar      1 <0>        -0.1276
     39 C29         3.8538    0.9411   14.1003 C.ar      1 <0>        -0.1329
     40 C30         4.7517    1.0330   15.1474 C.ar      1 <0>        -0.0708
     41 C31         6.0653    0.6437   14.9688 C.ar      1 <0>        -0.1757
     42 C32         6.4828    0.1598   13.7376 C.ar      1 <0>         0.1380
     43 C33         5.5782    0.0628   12.6900 C.ar      1 <0>        -0.1306
     44 O3          7.7743   -0.2238   13.5594 O.3       1 <0>        -0.3116
     45 C34         8.6483   -0.1017   14.6834 C.3       1 <0>         0.0216
     46 O4          1.9868   -3.4471   10.5470 O.3       1 <0>        -0.5423
     47 H4          1.0039    1.9031    0.0027 H         1 <0>         0.0599
     48 H5         -0.5459    1.8868   -0.8726 H         1 <0>         0.0725
     49 H6         -0.5289    1.8773    0.9072 H         1 <0>         0.0659
     50 H7          2.6626   -0.1783   -0.4315 H         1 <0>         0.1171
     51 H8          3.8152   -0.9721   -2.4575 H         1 <0>         0.1250
     52 H9          2.5070   -1.7297   -4.4012 H         1 <0>         0.1255
     53 H10         0.0463   -1.6944   -4.3185 H         1 <0>         0.1272
     54 H11        -1.1062   -0.9085   -2.2894 H         1 <0>         0.1262
     55 H12         1.6544   -0.7070    1.1351 H         1 <0>         0.3986
     56 H13         2.6563   -1.3124    2.5453 H         1 <0>         0.1336
     57 H14         3.8478   -2.1266    4.5338 H         1 <0>         0.1399
     58 H15         2.6559   -2.4034    6.6649 H         1 <0>         0.1250
     59 H16        -0.9645   -1.0315    4.8236 H         1 <0>         0.1511
     60 H17         1.6559   -2.5685    8.1916 H         1 <0>         0.3927
     61 H18         0.0645   -4.6711    9.3622 H         1 <0>         0.0934
     62 H19        -1.1290   -4.0552   10.5304 H         1 <0>         0.0959
     63 H20        -3.2779   -3.2072    9.7806 H         1 <0>         0.1379
     64 H21        -4.4708   -4.0895    5.7781 H         1 <0>         0.1481
     65 H22        -0.4208   -4.6920    6.9847 H         1 <0>         0.1313
     66 H23         2.2050   -0.9283    9.7043 H         1 <0>         0.1362
     67 H24         0.9239   -0.2716   10.7510 H         1 <0>         0.1494
     68 H25         2.1460   -1.0710   12.6361 H         1 <0>         0.4303
     69 H26         3.8135    0.4843   10.7869 H         1 <0>         0.1393
     70 H27         2.5324    1.1410   11.8335 H         1 <0>         0.1420
     71 H28         2.8276    1.2465   14.2417 H         1 <0>         0.1340
     72 H29         4.4262    1.4098   16.1058 H         1 <0>         0.1398
     73 H30         6.7666    0.7164   15.7869 H         1 <0>         0.1412
     74 H31         5.8996   -0.3180   11.7319 H         1 <0>         0.1391
     75 H32         9.6463   -0.4410   14.4061 H         1 <0>         0.1111
     76 H33         8.6931    0.9412   14.9972 H         1 <0>         0.0627
     77 H34         8.2720   -0.7123   15.5042 H         1 <0>         0.0623
     78 H35         2.4963   -3.3984    9.7265 H         1 <0>         0.3843
     79 H36         3.3320   -1.6790   11.6672 H         1 <0>         0.4319
@<TRIPOS>BOND
     1    1    2 1
     2    1   47 1
     3    1   48 1
     4    1   49 1
     5    2    3 1
     6    2    4 1
     7    2   10 1
     8    4    9 ar
     9    4    5 ar
    10    5    6 ar
    11    5   50 1
    12    6    7 ar
    13    6   51 1
    14    7    8 ar
    15    7   52 1
    16    8    9 ar
    17    8   53 1
    18    9   54 1
    19   10   11 am
    20   10   55 1
    21   11   12 2
    22   11   13 1
    23   13   18 ar
    24   13   14 ar
    25   14   15 ar
    26   14   56 1
    27   15   16 ar
    28   15   57 1
    29   16   17 ar
    30   16   58 1
    31   17   18 ar
    32   17   19 1
    33   18   59 1
    34   19   20 2
    35   19   21 am
    36   21   22 1
    37   21   60 1
    38   22   23 1
    39   22   24 1
    40   22   33 1
    41   24   25 1
    42   24   61 1
    43   24   62 1
    44   25   30 ar
    45   25   26 ar
    46   26   27 ar
    47   26   63 1
    48   27   28 ar
    49   27   32 1
    50   28   29 ar
    51   28   64 1
    52   29   30 ar
    53   29   31 1
    54   30   65 1
    55   33   34 1
    56   33   35 1
    57   33   46 1
    58   35   36 1
    59   35   66 1
    60   35   67 1
    61   36   37 1
    62   36   68 1
    63   36   79 1
    64   37   38 1
    65   37   69 1
    66   37   70 1
    67   38   43 ar
    68   38   39 ar
    69   39   40 ar
    70   39   71 1
    71   40   41 ar
    72   40   72 1
    73   41   42 ar
    74   41   73 1
    75   42   43 ar
    76   42   44 1
    77   43   74 1
    78   44   45 1
    79   45   75 1
    80   45   76 1
    81   45   77 1
    82   46   78 1
@<TRIPOS>MOLECULE
CHEMBL272320
   71    73     0     0     0
SMALL
USER_CHARGES

@<TRIPOS>ATOM
      1 C1         -0.6454   -5.7193    2.2160 C.3       1 <0>        -0.1514
      2 C2         -0.1579   -4.7634    1.1253 C.3       1 <0>        -0.1381
      3 C3         -1.1611   -4.7535   -0.0298 C.3       1 <0>         0.1118
      4 N1         -0.6944   -3.8382   -1.0741 N.am      1 <0>        -0.6030
      5 C4          0.2489   -4.3080   -2.0919 C.3       1 <0>         0.0957
      6 C5         -0.4850   -5.2014   -3.0939 C.3       1 <0>        -0.1477
      7 C6          0.4646   -5.5772   -4.2331 C.3       1 <0>        -0.1542
      8 C7         -1.1328   -2.5640   -1.0986 C.2       1 <0>         0.5577
      9 O1         -1.8531   -2.1519   -0.2104 O.2       1 <0>        -0.5261
     10 C8         -0.7376   -1.6673   -2.2059 C.ar      1 <0>        -0.1251
     11 C9         -0.7881   -2.1211   -3.5262 C.ar      1 <0>        -0.0640
     12 C10        -0.4194   -1.2851   -4.5612 C.ar      1 <0>        -0.0885
     13 C11         0.0014    0.0039   -4.2995 C.ar      1 <0>        -0.0663
     14 C12         0.0570    0.4701   -2.9841 C.ar      1 <0>        -0.1526
     15 C13        -0.3196   -0.3664   -1.9353 C.ar      1 <0>        -0.0131
     16 C14         0.5088    1.8502   -2.7056 C.2       1 <0>         0.5664
     17 O2          0.5567    2.2545   -1.5603 O.2       1 <0>        -0.5263
     18 N2          0.8674    2.6598   -3.7217 N.am      1 <0>        -0.7227
     19 C15         1.3150    4.0272   -3.4457 C.3       1 <0>         0.1227
     20 H1          1.8718    4.0451   -2.5088 H         1 <0>         0.1182
     21 C16         2.2169    4.5081   -4.5842 C.3       1 <0>        -0.0925
     22 C17         3.4731    3.6761   -4.6156 C.ar      1 <0>        -0.0351
     23 C18         4.5767    4.0639   -3.8796 C.ar      1 <0>        -0.1588
     24 C19         5.7316    3.3005   -3.9081 C.ar      1 <0>         0.1432
     25 C20         5.7803    2.1484   -4.6737 C.ar      1 <0>        -0.1891
     26 C21         4.6742    1.7607   -5.4101 C.ar      1 <0>         0.1415
     27 C22         3.5187    2.5229   -5.3760 C.ar      1 <0>        -0.1622
     28 F1          4.7204    0.6364   -6.1577 F         1 <0>        -0.1244
     29 F2          6.8106    3.6803   -3.1892 F         1 <0>        -0.1232
     30 C23         0.0991    4.9491   -3.3342 C.3       1 <0>         0.0817
     31 H2         -0.4577    4.9311   -4.2711 H         1 <0>         0.0879
     32 C24        -0.8028    4.4681   -2.1957 C.3       1 <0>         0.0343
     33 H3         -0.9602    3.3897   -2.2096 H         1 <0>         0.1724
     34 C25        -0.3906    5.0083   -0.8191 C.3       1 <0>        -0.1432
     35 C26        -1.9059    5.1279   -0.6039 C.3       1 <0>         0.0037
     36 N3         -2.0515    5.2425   -2.0682 N.4       1 <0>        -0.5339
     37 O3          0.5356    6.2829   -3.0650 O.3       1 <0>        -0.5585
     38 C27        -0.4759   -1.7817   -5.9829 C.3       1 <0>        -0.1222
     39 H4          0.0693   -5.7263    3.0389 H         1 <0>         0.0600
     40 H5         -1.6173   -5.3880    2.5816 H         1 <0>         0.0579
     41 H6         -0.7355   -6.7246    1.8043 H         1 <0>         0.0572
     42 H7         -0.0679   -3.7581    1.5370 H         1 <0>         0.0653
     43 H8          0.8140   -5.0947    0.7597 H         1 <0>         0.0632
     44 H9         -1.2512   -5.7588   -0.4415 H         1 <0>         0.0812
     45 H10        -2.1331   -4.4222    0.3358 H         1 <0>         0.0888
     46 H11         0.6766   -3.4518   -2.6137 H         1 <0>         0.0872
     47 H12         1.0460   -4.8771   -1.6134 H         1 <0>         0.0829
     48 H13        -0.8261   -6.1066   -2.5916 H         1 <0>         0.0739
     49 H14        -1.3433   -4.6649   -3.4984 H         1 <0>         0.0676
     50 H15         0.8058   -4.6720   -4.7353 H         1 <0>         0.0562
     51 H16         1.3229   -6.1137   -3.8286 H         1 <0>         0.0613
     52 H17        -0.0582   -6.2137   -4.9469 H         1 <0>         0.0636
     53 H18        -1.1159   -3.1282   -3.7377 H         1 <0>         0.1477
     54 H19         0.2885    0.6528   -5.1137 H         1 <0>         0.1284
     55 H20        -0.2830   -0.0092   -0.9167 H         1 <0>         0.1452
     56 H21         0.8292    2.3371   -4.6356 H         1 <0>         0.4078
     57 H22         1.6899    4.4064   -5.5329 H         1 <0>         0.0955
     58 H23         2.4779    5.5542   -4.4239 H         1 <0>         0.1045
     59 H24         4.5385    4.9629   -3.2823 H         1 <0>         0.1454
     60 H25         6.6808    1.5525   -4.6968 H         1 <0>         0.1537
     61 H26         2.6540    2.2183   -5.9470 H         1 <0>         0.1384
     62 H27         0.0945    4.2724   -0.1779 H         1 <0>         0.1345
     63 H28         0.1322    5.9641   -0.8530 H         1 <0>         0.1326
     64 H29        -2.3587    4.2257   -0.1928 H         1 <0>         0.1505
     65 H30        -2.1982    6.0298   -0.0660 H         1 <0>         0.1385
     66 H31        -1.9724    6.1899   -2.4063 H         1 <0>         0.4409
     67 H32         1.1127    6.6530   -3.7470 H         1 <0>         0.4041
     68 H33        -1.4591   -1.5695   -6.4031 H         1 <0>         0.0788
     69 H34         0.2884   -1.2777   -6.5745 H         1 <0>         0.0738
     70 H35        -0.2980   -2.8569   -5.9996 H         1 <0>         0.0760
     71 H36        -2.8609    4.7611   -2.4304 H         1 <0>         0.4224
@<TRIPOS>BOND
     1    1    2 1
     2    1   39 1
     3    1   40 1
     4    1   41 1
     5    2    3 1
     6    2   42 1
     7    2   43 1
     8    3    4 1
     9    3   44 1
    10    3   45 1
    11    4    5 1
    12    4    8 am
    13    5    6 1
    14    5   46 1
    15    5   47 1
    16    6    7 1
    17    6   48 1
    18    6   49 1
    19    7   50 1
    20    7   51 1
    21    7   52 1
    22    8    9 2
    23    8   10 1
    24   10   15 ar
    25   10   11 ar
    26   11   12 ar
    27   11   53 1
    28   12   13 ar
    29   12   38 1
    30   13   14 ar
    31   13   54 1
    32   14   15 ar
    33   14   16 1
    34   15   55 1
    35   16   17 2
    36   16   18 am
    37   18   19 1
    38   18   56 1
    39   19   20 1
    40   19   21 1
    41   19   30 1
    42   21   22 1
    43   21   57 1
    44   21   58 1
    45   22   27 ar
    46   22   23 ar
    47   23   24 ar
    48   23   59 1
    49   24   25 ar
    50   24   29 1
    51   25   26 ar
    52   25   60 1
    53   26   27 ar
    54   26   28 1
    55   27   61 1
    56   30   31 1
    57   30   32 1
    58   30   37 1
    59   32   33 1
    60   32   36 1
    61   32   34 1
    62   34   35 1
    63   34   62 1
    64   34   63 1
    65   35   36 1
    66   35   64 1
    67   35   65 1
    68   36   66 1
    69   36   71 1
    70   37   67 1
    71   38   68 1
    72   38   69 1
    73   38   70 1
@<TRIPOS>MOLECULE
CHEMBL252189
   56    59     0     0     0
SMALL
USER_CHARGES

@<TRIPOS>ATOM
      1 C1         -0.1413    1.5056   -1.4462 C.ar      1 <0>        -0.1232
      2 C2          0.0119    0.1863   -1.8342 C.ar      1 <0>        -0.1113
      3 C3          1.1956   -0.4764   -1.5842 C.ar      1 <0>        -0.1397
      4 C4          2.2406    0.1874   -0.9384 C.ar      1 <0>        -0.0055
      5 C5          2.0793    1.5188   -0.5500 C.ar      1 <0>        -0.1015
      6 C6          0.8901    2.1693   -0.8058 C.ar      1 <0>        -0.1083
      7 C7          3.5112   -0.5162   -0.6667 C.2       1 <0>         0.0560
      8 C8          4.7196    0.0739   -0.4352 C.2       1 <0>        -0.1642
      9 C9          5.6552   -0.9449   -0.2245 C.2       1 <0>        -0.1726
     10 C10         4.9995   -2.1372   -0.3316 C.2       1 <0>         0.0758
     11 N1          3.6797   -1.8763   -0.5976 N.pl3     1 <0>        -0.4178
     12 C11         2.6284   -2.8799   -0.7810 C.3       1 <0>         0.0681
     13 C12         2.5347   -3.2487   -2.2392 C.2       1 <0>         0.4967
     14 O1          3.2751   -2.7236   -3.0476 O.2       1 <0>        -0.5115
     15 N2          1.6410   -4.1497   -2.6419 N.2       1 <0>        -0.7041
     16 C13         0.7286   -3.8204   -3.5475 C.2       1 <0>         0.7038
     17 N3          0.7638   -2.5913   -4.1341 N.pl3     1 <0>        -0.8662
     18 N4         -0.2432   -4.7113   -3.8905 N.pl3     1 <0>        -0.8210
     19 C14         5.6053   -3.4763   -0.1815 C.ar      1 <0>        -0.0287
     20 C15         4.9924   -4.5905   -0.7592 C.ar      1 <0>        -0.1040
     21 C16         5.5604   -5.8379   -0.6176 C.ar      1 <0>        -0.1084
     22 C17         6.7422   -5.9881    0.0993 C.ar      1 <0>         0.1433
     23 C18         7.3548   -4.8812    0.6757 C.ar      1 <0>        -0.1363
     24 C19         6.7951   -3.6300    0.5336 C.ar      1 <0>        -0.0793
     25 N5          7.3152   -7.2549    0.2413 N.am      1 <0>        -0.6672
     26 C20         7.2092   -8.1579   -0.7536 C.2       1 <0>         0.5597
     27 O2          6.6934   -7.8425   -1.8082 O.2       1 <0>        -0.5061
     28 C21         7.7202   -9.5317   -0.5624 C.ar      1 <0>        -0.1307
     29 C22         8.3080   -9.8986    0.6496 C.ar      1 <0>        -0.0713
     30 C23         8.7830  -11.1821    0.8220 C.ar      1 <0>        -0.1176
     31 C24         8.6782  -12.1057   -0.2030 C.ar      1 <0>        -0.0618
     32 C25         8.0966  -11.7488   -1.4074 C.ar      1 <0>        -0.0997
     33 C26         7.6120  -10.4690   -1.5907 C.ar      1 <0>        -0.0291
     34 Br1         7.9584  -13.0189   -2.8016 Br        1 <0>        -0.0352
     35 H1         -1.0687    2.0210   -1.6482 H         1 <0>         0.1241
     36 H2         -0.7972   -0.3259   -2.3337 H         1 <0>         0.1203
     37 H3          1.3137   -1.5063   -1.8869 H         1 <0>         0.1115
     38 H4          2.8837    2.0380   -0.0501 H         1 <0>         0.1307
     39 H5          0.7640    3.1992   -0.5059 H         1 <0>         0.1281
     40 H6          4.9181    1.1353   -0.4180 H         1 <0>         0.1422
     41 H7          6.7064   -0.8119   -0.0151 H         1 <0>         0.1429
     42 H8          2.8679   -3.7680   -0.1963 H         1 <0>         0.1250
     43 H9          1.6743   -2.4717   -0.4475 H         1 <0>         0.1211
     44 H10        -0.9101   -4.4706   -4.5525 H         1 <0>         0.4130
     45 H11         1.4963   -1.9843   -3.9447 H         1 <0>         0.4243
     46 H12        -0.2682   -5.5864   -3.4729 H         1 <0>         0.4274
     47 H13         0.0563   -2.3232   -4.7411 H         1 <0>         0.4036
     48 H14         4.0743   -4.4745   -1.3159 H         1 <0>         0.1252
     49 H15         5.0869   -6.7000   -1.0637 H         1 <0>         0.1366
     50 H16         8.2725   -5.0014    1.2323 H         1 <0>         0.1314
     51 H17         7.2738   -2.7700    0.9781 H         1 <0>         0.1351
     52 H18         7.7893   -7.4843    1.0560 H         1 <0>         0.4107
     53 H19         8.3910   -9.1789    1.4506 H         1 <0>         0.1340
     54 H20         9.2382  -11.4668    1.7591 H         1 <0>         0.1426
     55 H21         9.0520  -13.1091   -0.0629 H         1 <0>         0.1410
     56 H22         7.1543  -10.1927   -2.5291 H         1 <0>         0.1484
@<TRIPOS>BOND
     1    1    6 ar
     2    1    2 ar
     3    1   35 1
     4    2    3 ar
     5    2   36 1
     6    3    4 ar
     7    3   37 1
     8    4    5 ar
     9    4    7 1
    10    5    6 ar
    11    5   38 1
    12    6   39 1
    13    7   11 1
    14    7    8 2
    15    8    9 1
    16    8   40 1
    17    9   10 2
    18    9   41 1
    19   10   11 1
    20   10   19 1
    21   11   12 1
    22   12   42 1
    23   12   43 1
    24   12   13 1
    25   13   15 1
    26   13   14 2
    27   15   16 2
    28   16   17 1
    29   16   18 1
    30   17   45 1
    31   17   47 1
    32   18   46 1
    33   18   44 1
    34   19   24 ar
    35   19   20 ar
    36   20   21 ar
    37   20   48 1
    38   21   22 ar
    39   21   49 1
    40   22   23 ar
    41   22   25 1
    42   23   24 ar
    43   23   50 1
    44   24   51 1
    45   25   26 am
    46   25   52 1
    47   26   27 2
    48   26   28 1
    49   28   33 ar
    50   28   29 ar
    51   29   30 ar
    52   29   53 1
    53   30   31 ar
    54   30   54 1
    55   31   32 ar
    56   31   55 1
    57   32   33 ar
    58   32   34 1
    59   33   56 1
@<TRIPOS>MOLECULE
CHEMBL400438
   72    75     0     0     0
SMALL
USER_CHARGES

@<TRIPOS>ATOM
      1 C1          0.1611    2.7411   -1.3801 C.3       1 <0>        -0.2036
      2 C2          0.3292    1.3216   -1.9258 C.3       1 <0>         0.0468
      3 C3          1.2551    1.3508   -3.1428 C.3       1 <0>        -0.0842
      4 C4          1.6118    2.7771   -3.4758 C.ar      1 <0>        -0.1163
      5 C5          1.3719    3.2754   -4.7424 C.ar      1 <0>        -0.1114
      6 C6          1.6980    4.5841   -5.0426 C.ar      1 <0>        -0.1083
      7 C7          2.2636    5.3970   -4.0777 C.ar      1 <0>        -0.0980
      8 C8          2.5040    4.8972   -2.8104 C.ar      1 <0>        -0.0669
      9 C9          2.1762    3.5877   -2.5096 C.ar      1 <0>        -0.1223
     10 C10         3.1272    5.7757   -1.7546 C.3       1 <0>        -0.0908
     11 C11         2.2610    5.7387   -0.4934 C.3       1 <0>        -0.1258
     12 C12         3.1509    5.7769    0.7524 C.3       1 <0>         0.2058
     13 H1          3.6921    6.7223    0.7905 H         1 <0>         0.0821
     14 N1          2.2733    5.6528    1.9397 N.am      1 <0>        -0.8159
     15 C13         2.7564    4.9290    2.9738 C.2       1 <0>         0.6030
     16 O1          3.6159    5.4338    3.6694 O.2       1 <0>        -0.4595
     17 C14         2.3105    3.5755    3.3091 C.ar      1 <0>        -0.1240
     18 C15         1.7561    2.7700    2.3078 C.ar      1 <0>        -0.0598
     19 C16         1.3485    1.4882    2.6017 C.ar      1 <0>        -0.0992
     20 C17         1.4634    0.9926    3.8864 C.ar      1 <0>        -0.0928
     21 C18         2.0164    1.7825    4.8894 C.ar      1 <0>         0.1603
     22 C19         2.4497    3.0682    4.6005 C.ar      1 <0>        -0.0482
     23 N2          2.1344    1.2810    6.1881 N.pl3     1 <0>        -0.9546
     24 C20         3.4480    1.2219    6.8339 C.3       1 <0>         0.0840
     25 S1          0.7894    0.7534    6.9973 S.o2      1 <0>         2.5982
     26 O2          1.0580    1.0289    8.3653 O.2       1 <0>        -0.9347
     27 O3         -0.3012    1.3772    6.3334 O.2       1 <0>        -0.9410
     28 C21         0.7495   -1.0383    6.7169 C.3       1 <0>        -0.6729
     29 C22         0.7910    0.6225    1.4990 C.3       1 <0>         0.1241
     30 O4          1.4216    0.9805    0.2642 O.3       1 <0>        -0.3585
     31 C23         0.9220    0.4404   -0.8565 C.2       1 <0>         0.4809
     32 O5          0.9465   -0.7578   -1.0101 O.2       1 <0>        -0.4253
     33 C24         4.1285    4.6306    0.7167 C.ar      1 <0>        -0.1155
     34 C25         5.4553    4.8432    1.0411 C.ar      1 <0>        -0.0892
     35 C26         6.3519    3.7917    1.0084 C.ar      1 <0>        -0.1130
     36 C27         5.9217    2.5273    0.6516 C.ar      1 <0>        -0.1067
     37 C28         4.5947    2.3145    0.3280 C.ar      1 <0>        -0.1176
     38 C29         3.6972    3.3652    0.3649 C.ar      1 <0>        -0.1099
     39 N3         -0.9823    0.7925   -2.3234 N.4       1 <0>        -0.6225
     40 H2          1.0427    3.0142   -0.8002 H         1 <0>         0.1244
     41 H3          0.0420    3.4377   -2.2100 H         1 <0>         0.1189
     42 H4         -0.7212    2.7827   -0.7414 H         1 <0>         0.0894
     43 H5          2.1641    0.7921   -2.9203 H         1 <0>         0.1177
     44 H6          0.7494    0.8952   -3.9942 H         1 <0>         0.1103
     45 H7          0.9301    2.6420   -5.4974 H         1 <0>         0.1260
     46 H8          1.5110    4.9726   -6.0328 H         1 <0>         0.1308
     47 H9          2.5176    6.4200   -4.3131 H         1 <0>         0.1311
     48 H10         2.3616    3.1986   -1.5194 H         1 <0>         0.1354
     49 H11         4.1271    5.4103   -1.5205 H         1 <0>         0.0906
     50 H12         3.1898    6.7996   -2.1233 H         1 <0>         0.0834
     51 H13         1.5930    6.6000   -0.4876 H         1 <0>         0.0810
     52 H14         1.6692    4.8233   -0.4875 H         1 <0>         0.0666
     53 H15         1.3980    6.0695    1.9732 H         1 <0>         0.4144
     54 H16         1.6477    3.1542    1.3043 H         1 <0>         0.1410
     55 H17         1.1237   -0.0074    4.1120 H         1 <0>         0.1317
     56 H18         2.8948    3.6755    5.3748 H         1 <0>         0.1450
     57 H19         3.6306    2.1521    7.3719 H         1 <0>         0.0731
     58 H20         3.4715    0.3867    7.5339 H         1 <0>         0.0830
     59 H21         4.2194    1.0829    6.0764 H         1 <0>         0.0815
     60 H22         1.6602   -1.4883    7.1121 H         1 <0>         0.1338
     61 H23        -0.1162   -1.4660    7.2226 H         1 <0>         0.1369
     62 H24         0.6804   -1.2372    5.6474 H         1 <0>         0.1256
     63 H25         0.9917   -0.4256    1.7209 H         1 <0>         0.0953
     64 H26        -0.2844    0.7810    1.4189 H         1 <0>         0.0887
     65 H27         5.7914    5.8310    1.3198 H         1 <0>         0.1263
     66 H28         7.3887    3.9580    1.2612 H         1 <0>         0.1267
     67 H29         6.6224    1.7059    0.6253 H         1 <0>         0.1235
     68 H30         4.2587    1.3267    0.0490 H         1 <0>         0.1184
     69 H31         2.6597    3.1981    0.1157 H         1 <0>         0.1214
     70 H32        -1.3806    1.3830   -3.0381 H         1 <0>         0.4497
     71 H33        -0.8722   -0.1436   -2.6834 H         1 <0>         0.4441
     72 H34        -1.5949    0.7748   -1.5219 H         1 <0>         0.4375
@<TRIPOS>BOND
     1    1    2 1
     2    1   40 1
     3    1   41 1
     4    1   42 1
     5    2   31 1
     6    2    3 1
     7    2   39 1
     8    3    4 1
     9    3   43 1
    10    3   44 1
    11    4    9 ar
    12    4    5 ar
    13    5    6 ar
    14    5   45 1
    15    6    7 ar
    16    6   46 1
    17    7    8 ar
    18    7   47 1
    19    8    9 ar
    20    8   10 1
    21    9   48 1
    22   10   11 1
    23   10   49 1
    24   10   50 1
    25   11   12 1
    26   11   51 1
    27   11   52 1
    28   12   13 1
    29   12   14 1
    30   12   33 1
    31   14   15 am
    32   14   53 1
    33   15   16 2
    34   15   17 1
    35   17   22 ar
    36   17   18 ar
    37   18   19 ar
    38   18   54 1
    39   19   20 ar
    40   19   29 1
    41   20   21 ar
    42   20   55 1
    43   21   22 ar
    44   21   23 1
    45   22   56 1
    46   23   24 1
    47   23   25 1
    48   24   57 1
    49   24   58 1
    50   24   59 1
    51   25   26 2
    52   25   27 2
    53   25   28 1
    54   28   60 1
    55   28   61 1
    56   28   62 1
    57   29   30 1
    58   29   63 1
    59   29   64 1
    60   30   31 1
    61   31   32 2
    62   33   38 ar
    63   33   34 ar
    64   34   35 ar
    65   34   65 1
    66   35   36 ar
    67   35   66 1
    68   36   37 ar
    69   36   67 1
    70   37   38 ar
    71   37   68 1
    72   38   69 1
    73   39   70 1
    74   39   71 1
    75   39   72 1
@<TRIPOS>MOLECULE
CHEMBL400438__1
   71    74     0     0     0
SMALL
USER_CHARGES

@<TRIPOS>ATOM
      1 C1          0.1611    2.7411   -1.3801 C.3       1 <0>        -0.2038
      2 C2          0.3292    1.3216   -1.9258 C.3       1 <0>         0.1177
      3 C3          1.2551    1.3508   -3.1428 C.3       1 <0>        -0.0686
      4 C4          1.6118    2.7771   -3.4758 C.ar      1 <0>        -0.0860
      5 C5          1.3719    3.2754   -4.7424 C.ar      1 <0>        -0.1174
      6 C6          1.6980    4.5841   -5.0426 C.ar      1 <0>        -0.1158
      7 C7          2.2636    5.3970   -4.0777 C.ar      1 <0>        -0.1159
      8 C8          2.5040    4.8972   -2.8104 C.ar      1 <0>        -0.0797
      9 C9          2.1761    3.5877   -2.5096 C.ar      1 <0>        -0.1190
     10 C10         3.1272    5.7757   -1.7546 C.3       1 <0>        -0.0825
     11 C11         2.2610    5.7387   -0.4934 C.3       1 <0>        -0.1311
     12 C12         3.1509    5.7769    0.7524 C.3       1 <0>         0.2085
     13 H1          3.6921    6.7223    0.7905 H         1 <0>         0.0786
     14 N1          2.2733    5.6528    1.9397 N.am      1 <0>        -0.8164
     15 C13         2.7564    4.9290    2.9738 C.2       1 <0>         0.6086
     16 O1          3.6159    5.4338    3.6694 O.2       1 <0>        -0.4687
     17 C14         2.3105    3.5755    3.3091 C.ar      1 <0>        -0.1305
     18 C15         1.7561    2.7700    2.3078 C.ar      1 <0>        -0.0557
     19 C16         1.3485    1.4882    2.6017 C.ar      1 <0>        -0.0858
     20 C17         1.4634    0.9926    3.8864 C.ar      1 <0>        -0.0946
     21 C18         2.0164    1.7825    4.8894 C.ar      1 <0>         0.1507
     22 C19         2.4497    3.0682    4.6005 C.ar      1 <0>        -0.0540
     23 N2          2.1344    1.2810    6.1881 N.pl3     1 <0>        -0.9525
     24 C20         3.4480    1.2219    6.8339 C.3       1 <0>         0.0864
     25 S1          0.7894    0.7534    6.9973 S.o2      1 <0>         2.5992
     26 O2          1.0580    1.0289    8.3653 O.2       1 <0>        -0.9417
     27 O3         -0.3012    1.3772    6.3334 O.2       1 <0>        -0.9388
     28 C21         0.7495   -1.0383    6.7169 C.3       1 <0>        -0.6738
     29 C22         0.7910    0.6225    1.4990 C.3       1 <0>         0.1231
     30 O4          1.4216    0.9805    0.2642 O.3       1 <0>        -0.3822
     31 C23         0.9220    0.4404   -0.8565 C.2       1 <0>         0.4879
     32 O5          0.9465   -0.7578   -1.0101 O.2       1 <0>        -0.4416
     33 C24         4.1285    4.6306    0.7167 C.ar      1 <0>        -0.1160
     34 C25         5.4553    4.8432    1.0411 C.ar      1 <0>        -0.0926
     35 C26         6.3519    3.7917    1.0084 C.ar      1 <0>        -0.1195
     36 C27         5.9217    2.5273    0.6516 C.ar      1 <0>        -0.1093
     37 C28         4.5947    2.3145    0.3280 C.ar      1 <0>        -0.1143
     38 C29         3.6972    3.3652    0.3649 C.ar      1 <0>        -0.1036
     39 N3         -0.9823    0.7925   -2.3234 N.3       1 <0>        -0.8213
     40 H2          1.0427    3.0142   -0.8002 H         1 <0>         0.0840
     41 H3          0.0420    3.4377   -2.2100 H         1 <0>         0.0867
     42 H4         -0.7212    2.7827   -0.7414 H         1 <0>         0.0588
     43 H5          2.1641    0.7921   -2.9203 H         1 <0>         0.0845
     44 H6          0.7494    0.8952   -3.9942 H         1 <0>         0.0978
     45 H7          0.9301    2.6420   -5.4974 H         1 <0>         0.1225
     46 H8          1.5110    4.9726   -6.0328 H         1 <0>         0.1222
     47 H9          2.5176    6.4200   -4.3131 H         1 <0>         0.1218
     48 H10         2.3616    3.1986   -1.5194 H         1 <0>         0.1349
     49 H11         4.1271    5.4103   -1.5205 H         1 <0>         0.0848
     50 H12         3.1898    6.7996   -2.1233 H         1 <0>         0.0765
     51 H13         1.5930    6.6000   -0.4876 H         1 <0>         0.0770
     52 H14         1.6692    4.8233   -0.4875 H         1 <0>         0.0744
     53 H15         1.3980    6.0695    1.9732 H         1 <0>         0.4137
     54 H16         1.6477    3.1542    1.3043 H         1 <0>         0.1447
     55 H17         1.1237   -0.0074    4.1120 H         1 <0>         0.1295
     56 H18         2.8948    3.6755    5.3748 H         1 <0>         0.1408
     57 H19         3.6306    2.1521    7.3719 H         1 <0>         0.0703
     58 H20         3.4715    0.3867    7.5339 H         1 <0>         0.0795
     59 H21         4.2194    1.0829    6.0764 H         1 <0>         0.0809
     60 H22         1.6602   -1.4883    7.1121 H         1 <0>         0.1318
     61 H23        -0.1162   -1.4660    7.2226 H         1 <0>         0.1349
     62 H24         0.6804   -1.2372    5.6474 H         1 <0>         0.1284
     63 H25         0.9917   -0.4256    1.7209 H         1 <0>         0.0839
     64 H26        -0.2844    0.7810    1.4189 H         1 <0>         0.0826
     65 H27         5.7914    5.8310    1.3198 H         1 <0>         0.1227
     66 H28         7.3887    3.9580    1.2612 H         1 <0>         0.1226
     67 H29         6.6224    1.7059    0.6253 H         1 <0>         0.1210
     68 H30         4.2587    1.3267    0.0490 H         1 <0>         0.1219
     69 H31         2.6597    3.1981    0.1157 H         1 <0>         0.1305
     70 H32        -1.6144    0.7647   -1.5375 H         1 <0>         0.3459
     71 H33        -1.3734    1.3291   -3.0832 H         1 <0>         0.3603
@<TRIPOS>BOND
     1    1    2 1
     2    1   40 1
     3    1   41 1
     4    1   42 1
     5    2   31 1
     6    2    3 1
     7    2   39 1
     8    3    4 1
     9    3   43 1
    10    3   44 1
    11    4    9 ar
    12    4    5 ar
    13    5    6 ar
    14    5   45 1
    15    6    7 ar
    16    6   46 1
    17    7    8 ar
    18    7   47 1
    19    8    9 ar
    20    8   10 1
    21    9   48 1
    22   10   11 1
    23   10   49 1
    24   10   50 1
    25   11   12 1
    26   11   51 1
    27   11   52 1
    28   12   13 1
    29   12   14 1
    30   12   33 1
    31   14   15 am
    32   14   53 1
    33   15   16 2
    34   15   17 1
    35   17   22 ar
    36   17   18 ar
    37   18   19 ar
    38   18   54 1
    39   19   20 ar
    40   19   29 1
    41   20   21 ar
    42   20   55 1
    43   21   22 ar
    44   21   23 1
    45   22   56 1
    46   23   24 1
    47   23   25 1
    48   24   57 1
    49   24   58 1
    50   24   59 1
    51   25   26 2
    52   25   27 2
    53   25   28 1
    54   28   60 1
    55   28   61 1
    56   28   62 1
    57   29   30 1
    58   29   63 1
    59   29   64 1
    60   30   31 1
    61   31   32 2
    62   33   38 ar
    63   33   34 ar
    64   34   35 ar
    65   34   65 1
    66   35   36 ar
    67   35   66 1
    68   36   37 ar
    69   36   67 1
    70   37   38 ar
    71   37   68 1
    72   38   69 1
    73   39   70 1
    74   39   71 1
@<TRIPOS>MOLECULE
CHEMBL1095431
   79    84     0     0     0
SMALL
NO_CHARGES

@<TRIPOS>ATOM
      1 C1         -0.0335    1.4642    0.0075 C.ar      1 <0>        -0.0804
      2 C2          1.1634    2.1571    0.0137 C.ar      1 <0>        -0.1375
      3 C3          2.3620    1.4683    0.0018 C.ar      1 <0>        -0.0483
      4 C4          2.3680    0.0881   -0.0234 C.ar      1 <0>        -0.2658
      5 C5          1.1705   -0.6114   -0.0275 C.ar      1 <0>         0.1203
      6 C6         -0.0335    0.0840   -0.0114 C.ar      1 <0>        -0.1359
      7 O1          1.1543   -1.9679   -0.0386 O.3       1 <0>        -0.2338
      8 C7          2.2058   -2.6486   -0.5526 C.ar      1 <0>         0.2848
      9 C8          3.0942   -2.0093   -1.4101 C.ar      1 <0>        -0.2133
     10 C9          4.1590   -2.7248   -1.9143 C.ar      1 <0>        -0.1211
     11 C10         4.3173   -4.0633   -1.5430 C.ar      1 <0>         0.1242
     12 C11         3.3806   -4.6376   -0.6840 C.ar      1 <0>         0.1360
     13 N1          2.3730   -3.9203   -0.2275 N.ar      1 <0>        -0.4596
     14 N2          5.3883   -4.7851   -1.9897 N.2       1 <0>        -0.6157
     15 C12         6.3510   -4.2397   -2.6833 C.2       1 <0>         0.6660
     16 N3          6.3388   -2.9162   -3.0314 N.pl3     1 <0>        -0.6337
     17 C13         5.1499   -2.0781   -2.8443 C.3       1 <0>         0.1282
     18 C14         7.5480   -2.3112   -3.5942 C.3       1 <0>         0.1372
     19 H1          7.6975   -2.6750   -4.6108 H         1 <0>         0.0857
     20 C15         7.3897   -0.7889   -3.6145 C.3       1 <0>        -0.1153
     21 C16         7.2197   -0.2730   -2.1844 C.3       1 <0>        -0.3458
     22 C17         6.2762    0.9028   -2.1852 C.2       1 <0>         0.5109
     23 O2          6.4402    1.8283   -2.9517 O.2       1 <0>        -0.5289
     24 N4          5.2333    0.9030   -1.3049 N.am      1 <0>        -0.6208
     25 C18         4.3502    2.0880   -1.3410 C.3       1 <0>         0.1201
     26 C19         3.6618    2.2332    0.0169 C.3       1 <0>        -0.1841
     27 C20         5.0020   -0.2074   -0.3777 C.3       1 <0>         0.0854
     28 C21         5.0567    0.3097    1.0612 C.3       1 <0>        -0.2036
     29 C22         4.8152   -0.8500    2.0295 C.3       1 <0>        -0.1211
     30 C23         5.8950   -1.9152    1.8290 C.3       1 <0>        -0.1215
     31 C24         5.8403   -2.4323    0.3901 C.3       1 <0>        -0.1351
     32 C25         6.0819   -1.2726   -0.5782 C.3       1 <0>        -0.2384
     33 C26         8.7557   -2.6883   -2.7340 C.3       1 <0>        -0.1128
     34 C27         8.4922   -2.2873   -1.2812 C.3       1 <0>        -0.1820
     35 C28         9.6999   -2.6644   -0.4209 C.3       1 <0>        -0.1168
     36 C29        10.9410   -1.9321   -0.9351 C.3       1 <0>        -0.1218
     37 C30        11.2045   -2.3331   -2.3879 C.3       1 <0>        -0.1178
     38 C31         9.9967   -1.9560   -3.2482 C.3       1 <0>        -0.1162
     39 N5          7.4107   -5.0197   -3.0760 N.pl3     1 <0>        -0.8323
     40 H2         -0.9691    2.0035    0.0220 H         1 <0>         0.1350
     41 H3          1.1616    3.2370    0.0276 H         1 <0>         0.1285
     42 H4          3.3059   -0.4473   -0.0403 H         1 <0>         0.1972
     43 H5         -0.9689   -0.4559   -0.0134 H         1 <0>         0.1358
     44 H6          2.9524   -0.9723   -1.6763 H         1 <0>         0.1499
     45 H7          3.4807   -5.6726   -0.3924 H         1 <0>         0.1774
     46 H8          4.6749   -1.9130   -3.8113 H         1 <0>         0.0779
     47 H9          5.4538   -1.1176   -2.4281 H         1 <0>         0.1284
     48 H10         8.2760   -0.3375   -4.0605 H         1 <0>         0.0940
     49 H11         6.5117   -0.5229   -4.2032 H         1 <0>         0.0734
     50 H12         6.8117   -1.0662   -1.5579 H         1 <0>         0.2455
     51 H13         8.1881    0.0382   -1.7926 H         1 <0>         0.1088
     52 H14         4.9430    2.9792   -1.5469 H         1 <0>         0.0911
     53 H15         3.5982    1.9594   -2.1195 H         1 <0>         0.0677
     54 H16         3.4618    3.2866    0.2127 H         1 <0>         0.0911
     55 H17         4.3097    1.8341    0.7973 H         1 <0>         0.1652
     56 H18         4.0216   -0.6432   -0.5701 H         1 <0>         0.1504
     57 H19         6.0371    0.7455    1.2536 H         1 <0>         0.0767
     58 H20         4.2874    1.0686    1.2040 H         1 <0>         0.1466
     59 H21         4.8542   -0.4816    3.0546 H         1 <0>         0.0737
     60 H22         3.8348   -1.2858    1.8371 H         1 <0>         0.0630
     61 H23         6.8754   -1.4794    2.0214 H         1 <0>         0.0645
     62 H24         5.7230   -2.7414    2.5188 H         1 <0>         0.0682
     63 H25         6.6097   -3.1912    0.2472 H         1 <0>         0.0772
     64 H26         4.8600   -2.8681    0.1976 H         1 <0>         0.0735
     65 H27         6.0429   -1.6410   -1.6033 H         1 <0>         0.1774
     66 H28         7.0623   -0.8368   -0.3858 H         1 <0>         0.1039
     67 H29         8.9197   -3.7645   -2.7898 H         1 <0>         0.0914
     68 H30         8.3282   -1.2111   -1.2253 H         1 <0>         0.1055
     69 H31         7.6081   -2.8090   -0.9149 H         1 <0>         0.0806
     70 H32         9.5122   -2.3787    0.6141 H         1 <0>         0.0614
     71 H33         9.8639   -3.7406   -0.4767 H         1 <0>         0.0606
     72 H34        10.7770   -0.8559   -0.8793 H         1 <0>         0.0600
     73 H35        11.8014   -2.2007   -0.3222 H         1 <0>         0.0620
     74 H36        12.0886   -1.8113   -2.7542 H         1 <0>         0.0642
     75 H37        11.3685   -3.4092   -2.4437 H         1 <0>         0.0626
     76 H38        10.1845   -2.2417   -4.2832 H         1 <0>         0.0665
     77 H39         9.8327   -0.8798   -3.1923 H         1 <0>         0.0703
     78 H40         7.4722   -5.9404   -2.7771 H         1 <0>         0.4214
     79 H41         8.0978   -4.6500   -3.6523 H         1 <0>         0.4122
@<TRIPOS>BOND
     1    1    6 ar
     2    1    2 ar
     3    1   40 1
     4    2    3 ar
     5    2   41 1
     6    3   26 1
     7    3    4 ar
     8    4    5 ar
     9    4   42 1
    10    5    6 ar
    11    5    7 1
    12    6   43 1
    13    7    8 1
    14    8   13 ar
    15    8    9 ar
    16    9   10 ar
    17    9   44 1
    18   10   17 1
    19   10   11 ar
    20   11   12 ar
    21   11   14 1
    22   12   13 ar
    23   12   45 1
    24   14   15 2
    25   15   16 1
    26   15   39 1
    27   16   17 1
    28   16   18 1
    29   17   46 1
    30   17   47 1
    31   18   19 1
    32   18   20 1
    33   18   33 1
    34   20   21 1
    35   20   48 1
    36   20   49 1
    37   21   22 1
    38   21   50 1
    39   21   51 1
    40   22   23 2
    41   22   24 am
    42   24   25 1
    43   24   27 1
    44   25   26 1
    45   25   52 1
    46   25   53 1
    47   26   54 1
    48   26   55 1
    49   27   32 1
    50   27   28 1
    51   27   56 1
    52   28   29 1
    53   28   57 1
    54   28   58 1
    55   29   30 1
    56   29   59 1
    57   29   60 1
    58   30   31 1
    59   30   61 1
    60   30   62 1
    61   31   32 1
    62   31   63 1
    63   31   64 1
    64   32   65 1
    65   32   66 1
    66   33   38 1
    67   33   34 1
    68   33   67 1
    69   34   35 1
    70   34   68 1
    71   34   69 1
    72   35   36 1
    73   35   70 1
    74   35   71 1
    75   36   37 1
    76   36   72 1
    77   36   73 1
    78   37   38 1
    79   37   74 1
    80   37   75 1
    81   38   76 1
    82   38   77 1
    83   39   78 1
    84   39   79 1
@<TRIPOS>MOLECULE
CHEMBL1095431__1
   80    85     0     0     0
SMALL
NO_CHARGES

@<TRIPOS>ATOM
      1 C1         -0.0300    1.4570    0.0118 C.ar      1 <0>        -0.0804
      2 C2          1.1662    2.1511    0.0154 C.ar      1 <0>        -0.1507
      3 C3          2.3656    1.4635    0.0021 C.ar      1 <0>        -0.0488
      4 C4          2.3729    0.0833   -0.0218 C.ar      1 <0>        -0.2712
      5 C5          1.1761   -0.6174   -0.0233 C.ar      1 <0>         0.1295
      6 C6         -0.0286    0.0768   -0.0058 C.ar      1 <0>        -0.1482
      7 O1          1.1612   -1.9740   -0.0332 O.3       1 <0>        -0.2312
      8 C7          2.2126   -2.6541   -0.5482 C.ar      1 <0>         0.1646
      9 C8          3.0988   -2.0147   -1.4078 C.ar      1 <0>        -0.1732
     10 C9          4.1635   -2.7296   -1.9131 C.ar      1 <0>        -0.1200
     11 C10         4.3237   -4.0676   -1.5409 C.ar      1 <0>        -0.0494
     12 C11         3.3891   -4.6420   -0.6798 C.ar      1 <0>         0.0887
     13 N1          2.3815   -3.9253   -0.2222 N.ar      1 <0>        -0.4425
     14 N2          5.3948   -4.7887   -1.9886 N.pl3     1 <0>        -0.5076
     15 C12         6.3560   -4.2429   -2.6840 C.cat     1 <0>         0.4612
     16 N3          6.3420   -2.9197   -3.0332 N.pl3     1 <0>        -0.5849
     17 C13         5.1522   -2.0828   -2.8453 C.3       1 <0>         0.1260
     18 C14         7.5497   -2.3139   -3.5982 C.3       1 <0>         0.1514
     19 H1          7.6983   -2.6785   -4.6146 H         1 <0>         0.0817
     20 C15         7.3897   -0.7918   -3.6196 C.3       1 <0>        -0.1161
     21 C16         7.2211   -0.2749   -2.1897 C.3       1 <0>        -0.3475
     22 C17         6.2763    0.9000   -2.1903 C.2       1 <0>         0.5098
     23 O2          6.4383    1.8249   -2.9579 O.2       1 <0>        -0.5328
     24 N4          5.2345    0.8998   -1.3087 N.am      1 <0>        -0.6189
     25 C18         4.3501    2.0838   -1.3448 C.3       1 <0>         0.1204
     26 C19         3.6646    2.2297    0.0144 C.3       1 <0>        -0.1833
     27 C20         5.0056   -0.2100   -0.3803 C.3       1 <0>         0.0826
     28 C21         5.0608    0.3086    1.0581 C.3       1 <0>        -0.2034
     29 C22         4.8218   -0.8505    2.0277 C.3       1 <0>        -0.1206
     30 C23         5.9030   -1.9143    1.8273 C.3       1 <0>        -0.1215
     31 C24         5.8478   -2.4330    0.3890 C.3       1 <0>        -0.1342
     32 C25         6.0869   -1.2738   -0.5806 C.3       1 <0>        -0.2338
     33 C26         8.7590   -2.6890   -2.7391 C.3       1 <0>        -0.1099
     34 C27         8.4969   -2.2870   -1.2863 C.3       1 <0>        -0.1822
     35 C28         9.7061   -2.6620   -0.4273 C.3       1 <0>        -0.1163
     36 C29        10.9457   -1.9288   -0.9437 C.3       1 <0>        -0.1224
     37 C30        11.2078   -2.3309   -2.3965 C.3       1 <0>        -0.1171
     38 C31         9.9985   -1.9558   -3.2555 C.3       1 <0>        -0.1180
     39 N5          7.4160   -5.0222   -3.0773 N.pl3     1 <0>        -0.8426
     40 H2         -0.9661    1.9954    0.0273 H         1 <0>         0.1301
     41 H3          1.1635    3.2310    0.0283 H         1 <0>         0.1238
     42 H4          3.3112   -0.4512   -0.0397 H         1 <0>         0.1982
     43 H5         -0.9635   -0.4640   -0.0058 H         1 <0>         0.1310
     44 H6          2.9556   -0.9780   -1.6747 H         1 <0>         0.1373
     45 H7          3.4907   -5.6767   -0.3873 H         1 <0>         0.1502
     46 H8          4.6755   -1.9190   -3.8117 H         1 <0>         0.0759
     47 H9          5.4559   -1.1216   -2.4305 H         1 <0>         0.1276
     48 H10         8.2750   -0.3399   -4.0671 H         1 <0>         0.0933
     49 H11         6.5108   -0.5273   -4.2074 H         1 <0>         0.0737
     50 H12         6.8147   -1.0679   -1.5620 H         1 <0>         0.2504
     51 H13         8.1897    0.0377   -1.7995 H         1 <0>         0.1062
     52 H14         4.9417    2.9754   -1.5523 H         1 <0>         0.0887
     53 H15         3.5972    1.9537   -2.1222 H         1 <0>         0.0671
     54 H16         3.4639    3.2831    0.2096 H         1 <0>         0.0881
     55 H17         4.3142    1.8320    0.7941 H         1 <0>         0.1640
     56 H18         4.0257   -0.6474   -0.5714 H         1 <0>         0.1590
     57 H19         6.0408    0.7460    1.2493 H         1 <0>         0.0728
     58 H20         4.2906    1.0665    1.2009 H         1 <0>         0.1460
     59 H21         4.8611   -0.4810    3.0524 H         1 <0>         0.0699
     60 H22         3.8419   -1.2879    1.8366 H         1 <0>         0.0662
     61 H23         6.8829   -1.4769    2.0185 H         1 <0>         0.0601
     62 H24         5.7327   -2.7401    2.5181 H         1 <0>         0.0645
     63 H25         6.6181   -3.1908    0.2462 H         1 <0>         0.0694
     64 H26         4.8679   -2.8704    0.1978 H         1 <0>         0.0896
     65 H27         6.0475   -1.6433   -1.6054 H         1 <0>         0.1815
     66 H28         7.0668   -0.8365   -0.3895 H         1 <0>         0.0966
     67 H29         8.9240   -3.7650   -2.7942 H         1 <0>         0.0904
     68 H30         8.3318   -1.2109   -1.2313 H         1 <0>         0.1059
     69 H31         7.6138   -2.8093   -0.9184 H         1 <0>         0.0852
     70 H32         9.5194   -2.3756    0.6077 H         1 <0>         0.0608
     71 H33         9.8712   -3.7381   -0.4824 H         1 <0>         0.0582
     72 H34        10.7806   -0.8528   -0.8887 H         1 <0>         0.0604
     73 H35        11.8072   -2.1960   -0.3317 H         1 <0>         0.0610
     74 H36        12.0909   -1.8085   -2.7644 H         1 <0>         0.0635
     75 H37        11.3729   -3.4069   -2.4516 H         1 <0>         0.0613
     76 H38        10.1852   -2.2422   -4.2905 H         1 <0>         0.0652
     77 H39         9.8335   -0.8798   -3.2005 H         1 <0>         0.0704
     78 H40         7.4789   -5.9426   -2.7777 H         1 <0>         0.4098
     79 H41         8.1019   -4.6522   -3.6549 H         1 <0>         0.4183
     80 H42         5.4426   -5.7355   -1.7833 H         1 <0>         0.4212
@<TRIPOS>BOND
     1    1    6 ar
     2    1    2 ar
     3    1   40 1
     4    2    3 ar
     5    2   41 1
     6    3   26 1
     7    3    4 ar
     8    4    5 ar
     9    4   42 1
    10    5    6 ar
    11    5    7 1
    12    6   43 1
    13    7    8 1
    14    8   13 ar
    15    8    9 ar
    16    9   10 ar
    17    9   44 1
    18   10   17 1
    19   10   11 ar
    20   11   12 ar
    21   11   14 1
    22   12   13 ar
    23   12   45 1
    24   14   15 2
    25   14   80 1
    26   15   16 1
    27   15   39 1
    28   16   17 1
    29   16   18 1
    30   17   46 1
    31   17   47 1
    32   18   19 1
    33   18   20 1
    34   18   33 1
    35   20   21 1
    36   20   48 1
    37   20   49 1
    38   21   22 1
    39   21   50 1
    40   21   51 1
    41   22   23 2
    42   22   24 am
    43   24   25 1
    44   24   27 1
    45   25   26 1
    46   25   52 1
    47   25   53 1
    48   26   54 1
    49   26   55 1
    50   27   32 1
    51   27   28 1
    52   27   56 1
    53   28   29 1
    54   28   57 1
    55   28   58 1
    56   29   30 1
    57   29   59 1
    58   29   60 1
    59   30   31 1
    60   30   61 1
    61   30   62 1
    62   31   32 1
    63   31   63 1
    64   31   64 1
    65   32   65 1
    66   32   66 1
    67   33   38 1
    68   33   34 1
    69   33   67 1
    70   34   35 1
    71   34   68 1
    72   34   69 1
    73   35   36 1
    74   35   70 1
    75   35   71 1
    76   36   37 1
    77   36   72 1
    78   36   73 1
    79   37   38 1
    80   37   74 1
    81   37   75 1
    82   38   76 1
    83   38   77 1
    84   39   78 1
    85   39   79 1
@<TRIPOS>MOLECULE
CHEMBL582045
   53    57     0     0     0
SMALL
USER_CHARGES

@<TRIPOS>ATOM
      1 C1         -0.7899    1.0079   -0.0752 C.ar      1 <0>        -0.0959
      2 C2          0.1842    1.9571    0.1607 C.ar      1 <0>        -0.0881
      3 C3          1.5083    1.5629    0.3400 C.ar      1 <0>        -0.0219
      4 C4          1.8418    0.2111    0.2801 C.ar      1 <0>        -0.0643
      5 C5          0.8599   -0.7293    0.0438 C.ar      1 <0>        -0.0905
      6 C6         -0.4534   -0.3323   -0.1336 C.ar      1 <0>        -0.1198
      7 C7          1.2189   -2.1915   -0.0212 C.3       1 <0>         0.2191
      8 C8          0.3773   -2.9857    0.9417 C.cat     1 <0>         0.4998
      9 N1         -0.8968   -3.1391    0.9996 N.pl3     1 <0>        -0.5609
     10 C9         -1.4722   -3.9620    2.0709 C.3       1 <0>         0.0556
     11 C10        -0.5022   -5.0764    2.4661 C.3       1 <0>        -0.1636
     12 C11         0.8404   -4.4662    2.8964 C.3       1 <0>         0.0844
     13 N2          1.2782   -3.5716    1.8135 N.pl3     1 <0>        -0.5395
     14 C12         2.5497   -3.1916    1.4897 C.2       1 <0>         0.6066
     15 N3          2.5971   -2.4075    0.4543 N.2       1 <0>        -0.5400
     16 N4          3.6633   -3.5962    2.1868 N.pl3     1 <0>        -0.8054
     17 C13         1.0559   -2.7129   -1.4257 C.ar      1 <0>        -0.1184
     18 C14        -0.2087   -2.8589   -1.9652 C.ar      1 <0>        -0.0831
     19 C15        -0.3608   -3.3371   -3.2523 C.ar      1 <0>        -0.1127
     20 C16         0.7567   -3.6705   -4.0038 C.ar      1 <0>         0.1351
     21 C17         2.0245   -3.5226   -3.4603 C.ar      1 <0>        -0.1837
     22 C18         2.1715   -3.0391   -2.1746 C.ar      1 <0>        -0.0261
     23 O1          0.6096   -4.1415   -5.2700 O.3       1 <0>        -0.3068
     24 C19         1.8041   -4.4645   -5.9848 C.3       1 <0>         0.6050
     25 F1          2.5072   -5.4572   -5.2938 F         1 <0>        -0.1620
     26 F2          1.4720   -4.9311   -7.2612 F         1 <0>        -0.1216
     27 F3          2.6026   -3.3215   -6.0993 F         1 <0>        -0.1596
     28 C20         2.5599    2.5788    0.5934 C.ar      1 <0>        -0.1674
     29 C21         3.8937    2.2026    0.7698 C.ar      1 <0>         0.1645
     30 N5          4.7989    3.1399    0.9929 N.ar      1 <0>        -0.5125
     31 C22         4.4576    4.4120    1.0496 C.ar      1 <0>         0.3050
     32 N6          3.2110    4.8095    0.8892 N.ar      1 <0>        -0.5112
     33 C23         2.2444    3.9383    0.6563 C.ar      1 <0>         0.1658
     34 H1         -1.8175    1.3120   -0.2099 H         1 <0>         0.1416
     35 H2         -0.0796    3.0034    0.2057 H         1 <0>         0.1390
     36 H3          2.8668   -0.0999    0.4181 H         1 <0>         0.1469
     37 H4         -1.2187   -1.0716   -0.3184 H         1 <0>         0.1095
     38 H5         -1.6735   -3.3344    2.9390 H         1 <0>         0.1238
     39 H6         -2.4066   -4.4034    1.7241 H         1 <0>         0.1401
     40 H7         -0.9232   -5.6469    3.2940 H         1 <0>         0.1413
     41 H8         -0.3435   -5.7379    1.6145 H         1 <0>         0.1003
     42 H9          0.7118   -3.8984    3.8179 H         1 <0>         0.1160
     43 H10         1.5764   -5.2563    3.0457 H         1 <0>         0.1267
     44 H11         3.5689   -4.1828    2.9535 H         1 <0>         0.4202
     45 H12         4.5434   -3.2950    1.9120 H         1 <0>         0.4412
     46 H13        -1.0783   -2.5992   -1.3798 H         1 <0>         0.1202
     47 H14        -1.3489   -3.4517   -3.6731 H         1 <0>         0.1530
     48 H15         2.8960   -3.7815   -4.0433 H         1 <0>         0.1469
     49 H16         3.1584   -2.9196   -1.7526 H         1 <0>         0.1548
     50 H17         4.1808    1.1624    0.7250 H         1 <0>         0.1693
     51 H18         5.2230    5.1514    1.2337 H         1 <0>         0.2038
     52 H19         1.2261    4.2719    0.5209 H         1 <0>         0.1714
     53 H20        -1.4721   -2.7158    0.3433 H         1 <0>         0.4480
@<TRIPOS>BOND
     1    1    6 ar
     2    1    2 ar
     3    1   34 1
     4    2    3 ar
     5    2   35 1
     6    3    4 ar
     7    3   28 1
     8    4    5 ar
     9    4   36 1
    10    5    6 ar
    11    5    7 1
    12    6   37 1
    13    7   15 1
    14    7    8 1
    15    7   17 1
    16    8   13 1
    17    8    9 2
    18    9   10 1
    19    9   53 1
    20   10   11 1
    21   10   38 1
    22   10   39 1
    23   11   12 1
    24   11   40 1
    25   11   41 1
    26   12   13 1
    27   12   42 1
    28   12   43 1
    29   13   14 1
    30   14   15 2
    31   14   16 1
    32   16   44 1
    33   16   45 1
    34   17   22 ar
    35   17   18 ar
    36   18   19 ar
    37   18   46 1
    38   19   20 ar
    39   19   47 1
    40   20   21 ar
    41   20   23 1
    42   21   22 ar
    43   21   48 1
    44   22   49 1
    45   23   24 1
    46   24   25 1
    47   24   26 1
    48   24   27 1
    49   28   33 ar
    50   28   29 ar
    51   29   30 ar
    52   29   50 1
    53   30   31 ar
    54   31   32 ar
    55   31   51 1
    56   32   33 ar
    57   33   52 1
@<TRIPOS>MOLECULE
CHEMBL201730
   71    74     0     0     0
SMALL
USER_CHARGES

@<TRIPOS>ATOM
      1 C1         -2.5731   -0.1723    1.2370 C.3       1 <0>         0.0665
      2 N1         -1.8526   -1.3198    0.6798 N.pl3     1 <0>        -0.9435
      3 C2         -0.9268   -2.0118    1.4650 C.ar      1 <0>         0.1740
      4 C3          0.1062   -2.7139    0.8604 C.ar      1 <0>        -0.1187
      5 C4          1.0324   -3.4054    1.6413 C.ar      1 <0>        -0.0156
      6 C5          0.9197   -3.3908    3.0300 C.ar      1 <0>        -0.0993
      7 C6         -0.1186   -2.6849    3.6344 C.ar      1 <0>        -0.1199
      8 C7         -1.0389   -1.9907    2.8476 C.ar      1 <0>        -0.0908
      9 C8         -0.2419   -2.6666    5.1079 C.2       1 <0>         0.5689
     10 O1         -1.1990   -2.1302    5.6311 O.2       1 <0>        -0.5321
     11 N2          0.7069   -3.2448    5.8708 N.am      1 <0>        -0.7225
     12 C9          0.5317   -3.3236    7.3231 C.3       1 <0>         0.1235
     13 H1         -0.5310   -3.2902    7.5632 H         1 <0>         0.1126
     14 C10         1.1301   -4.6340    7.8386 C.3       1 <0>        -0.0829
     15 C11         0.3643   -5.7969    7.2624 C.ar      1 <0>        -0.0952
     16 C12        -0.7985   -6.2291    7.8724 C.ar      1 <0>        -0.1140
     17 C13        -1.5010   -7.2958    7.3438 C.ar      1 <0>        -0.1139
     18 C14        -1.0410   -7.9302    6.2050 C.ar      1 <0>        -0.1134
     19 C15         0.1213   -7.4974    5.5945 C.ar      1 <0>        -0.1136
     20 C16         0.8215   -6.4279    6.1206 C.ar      1 <0>        -0.1124
     21 C17         1.2420   -2.1424    7.9874 C.3       1 <0>         0.0740
     22 H2          2.3047   -2.1758    7.7473 H         1 <0>         0.1257
     23 C18         0.6436   -0.8321    7.4719 C.3       1 <0>        -0.0387
     24 N3          1.4031    0.3010    8.0171 N.4       1 <0>        -0.4748
     25 C19         0.8286    1.5591    7.5221 C.3       1 <0>        -0.0845
     26 C20         1.7114    2.4374    6.6331 C.3       1 <0>        -0.1544
     27 C21         1.4082    2.8645    8.0707 C.3       1 <0>        -0.1527
     28 O2          1.0711   -2.2193    9.4041 O.3       1 <0>        -0.5453
     29 C22         2.1322   -4.1536    0.9960 C.2       1 <0>        -0.1250
     30 C23         3.3344   -4.1769    1.5538 C.2       1 <0>        -0.1034
     31 C24         3.6336   -3.2924    2.7367 C.3       1 <0>        -0.1337
     32 C25         5.0858   -3.2159    3.2122 C.3       1 <0>        -0.1672
     33 C26         4.0480   -3.9746    4.0420 C.3       1 <0>        -0.1831
     34 S1         -2.1353   -1.7967   -0.8806 S.o2      1 <0>         2.5962
     35 O3         -1.8118   -3.1802   -0.9012 O.2       1 <0>        -0.9353
     36 O4         -3.4575   -1.3576   -1.1601 O.2       1 <0>        -0.9362
     37 C27        -0.9426   -0.8614   -1.8773 C.3       1 <0>        -0.6710
     38 H3         -2.0060    0.7392    1.0485 H         1 <0>         0.0688
     39 H4         -3.5528   -0.0948    0.7657 H         1 <0>         0.0990
     40 H5         -2.6965   -0.3078    2.3115 H         1 <0>         0.0858
     41 H6          0.1930   -2.7253   -0.2161 H         1 <0>         0.1353
     42 H7          1.6354   -3.9257    3.6367 H         1 <0>         0.1359
     43 H8         -1.8416   -1.4399    3.3154 H         1 <0>         0.1444
     44 H9          1.5059   -3.6086    5.4582 H         1 <0>         0.4069
     45 H10         2.1748   -4.7006    7.5349 H         1 <0>         0.0823
     46 H11         1.0656   -4.6597    8.9264 H         1 <0>         0.1025
     47 H12        -1.1579   -5.7335    8.7621 H         1 <0>         0.1201
     48 H13        -2.4091   -7.6339    7.8207 H         1 <0>         0.1246
     49 H14        -1.5894   -8.7640    5.7924 H         1 <0>         0.1249
     50 H15         0.4809   -7.9932    4.7049 H         1 <0>         0.1244
     51 H16         1.7276   -6.0875    5.6415 H         1 <0>         0.1165
     52 H17         0.6940   -0.8131    6.3832 H         1 <0>         0.1381
     53 H18        -0.3967   -0.7582    7.7888 H         1 <0>         0.1429
     54 H19         1.3565    0.2835    9.0248 H         1 <0>         0.4320
     55 H20        -0.2392    1.5348    7.3045 H         1 <0>         0.1772
     56 H21         2.7185    2.0817    6.4156 H         1 <0>         0.1202
     57 H22         1.2245    2.9910    5.8303 H         1 <0>         0.1332
     58 H23         0.7219    3.6991    8.2136 H         1 <0>         0.1345
     59 H24         2.2159    2.7898    8.7989 H         1 <0>         0.1217
     60 H25         0.1478   -2.1950    9.6907 H         1 <0>         0.3936
     61 H26         1.9561   -4.6811    0.0702 H         1 <0>         0.1339
     62 H27         4.0996   -4.8298    1.1605 H         1 <0>         0.1260
     63 H28         3.0309   -2.3872    2.8112 H         1 <0>         0.1123
     64 H29         5.8248   -3.8054    2.6695 H         1 <0>         0.1011
     65 H30         5.4389   -2.2602    3.5996 H         1 <0>         0.0967
     66 H31         3.7184   -3.5180    4.9752 H         1 <0>         0.0884
     67 H32         4.1043   -5.0631    4.0451 H         1 <0>         0.1024
     68 H33         0.0700   -1.1074   -1.5577 H         1 <0>         0.1303
     69 H34        -1.0649   -1.1212   -2.9288 H         1 <0>         0.1392
     70 H35        -1.1163    0.2065   -1.7443 H         1 <0>         0.1334
     71 H36         2.3661    0.2327    7.7237 H         1 <0>         0.4232
@<TRIPOS>BOND
     1    1    2 1
     2    1   38 1
     3    1   39 1
     4    1   40 1
     5    2    3 1
     6    2   34 1
     7    3    8 ar
     8    3    4 ar
     9    4    5 ar
    10    4   41 1
    11    5    6 ar
    12    5   29 1
    13    6    7 ar
    14    6   42 1
    15    7    8 ar
    16    7    9 1
    17    8   43 1
    18    9   10 2
    19    9   11 am
    20   11   12 1
    21   11   44 1
    22   12   13 1
    23   12   14 1
    24   12   21 1
    25   14   15 1
    26   14   45 1
    27   14   46 1
    28   15   20 ar
    29   15   16 ar
    30   16   17 ar
    31   16   47 1
    32   17   18 ar
    33   17   48 1
    34   18   19 ar
    35   18   49 1
    36   19   20 ar
    37   19   50 1
    38   20   51 1
    39   21   22 1
    40   21   23 1
    41   21   28 1
    42   23   24 1
    43   23   52 1
    44   23   53 1
    45   24   25 1
    46   24   54 1
    47   24   71 1
    48   25   27 1
    49   25   26 1
    50   25   55 1
    51   26   27 1
    52   26   56 1
    53   26   57 1
    54   27   58 1
    55   27   59 1
    56   28   60 1
    57   29   30 2
    58   29   61 1
    59   30   31 1
    60   30   62 1
    61   31   33 1
    62   31   32 1
    63   31   63 1
    64   32   33 1
    65   32   64 1
    66   32   65 1
    67   33   66 1
    68   33   67 1
    69   34   35 2
    70   34   36 2
    71   34   37 1
    72   37   68 1
    73   37   69 1
    74   37   70 1
@<TRIPOS>MOLECULE
CHEMBL403050
   86    90     0     0     0
SMALL
USER_CHARGES

@<TRIPOS>ATOM
      1 C1         -0.0187    1.5258    0.0104 C.3       1 <0>        -0.1569
      2 C2          0.0021   -0.0041    0.0020 C.3       1 <0>        -0.1191
      3 C3          0.7182   -0.4975   -1.2568 C.3       1 <0>        -0.1219
      4 C4          0.7390   -2.0273   -1.2652 C.3       1 <0>        -0.1298
      5 C5          1.4551   -2.5207   -2.5240 C.3       1 <0>         0.1230
      6 N1          1.4750   -3.9856   -2.5321 N.am      1 <0>        -0.6223
      7 C6          2.5383   -4.8026   -1.9357 C.3       1 <0>         0.1158
      8 C7          1.9394   -6.2196   -1.7947 C.3       1 <0>        -0.1251
      9 H1          2.6934   -6.9828   -1.9873 H         1 <0>         0.1313
     10 C8          0.8595   -6.2169   -2.9014 C.3       1 <0>        -0.0706
     11 H2         -0.0200   -6.7735   -2.5776 H         1 <0>         0.1217
     12 C9          0.5188   -4.7541   -3.0816 C.2       1 <0>         0.5280
     13 O1         -0.4718   -4.3355   -3.6425 O.2       1 <0>        -0.5104
     14 C10         1.4189   -6.8083   -4.1969 C.3       1 <0>        -0.1487
     15 C11         0.6151   -7.9230   -4.8694 C.3       1 <0>        -0.1629
     16 C12         1.9268   -8.2509   -4.1533 C.3       1 <0>        -0.1712
     17 C13         1.3186   -6.4098   -0.4348 C.2       1 <0>         0.5283
     18 O2          0.1331   -6.6466   -0.3371 O.2       1 <0>        -0.5046
     19 N2          2.0807   -6.3169    0.6729 N.am      1 <0>        -0.7235
     20 C14         1.4772   -6.5019    1.9949 C.3       1 <0>         0.1065
     21 H3          0.4647   -6.0984    1.9918 H         1 <0>         0.0949
     22 C15         1.4305   -7.9940    2.3300 C.3       1 <0>        -0.1078
     23 C16         0.5068   -8.6962    1.3683 C.ar      1 <0>        -0.0206
     24 C17        -0.8373   -8.8177    1.6661 C.ar      1 <0>        -0.1588
     25 C18        -1.6869   -9.4631    0.7834 C.ar      1 <0>         0.1456
     26 C19        -1.1896   -9.9862   -0.3978 C.ar      1 <0>        -0.1859
     27 C20         0.1567   -9.8634   -0.6951 C.ar      1 <0>         0.1470
     28 C21         1.0035   -9.2131    0.1867 C.ar      1 <0>        -0.1569
     29 F1          0.6434  -10.3734   -1.8476 F         1 <0>        -0.1242
     30 F2         -3.0006   -9.5826    1.0751 F         1 <0>        -0.1279
     31 C22         2.3149   -5.7693    3.0450 C.3       1 <0>         0.0935
     32 H4          2.4223   -4.7231    2.7588 H         1 <0>         0.1331
     33 C23         1.6189   -5.8573    4.4046 C.3       1 <0>        -0.0122
     34 H5          1.4930   -6.8992    4.6990 H         1 <0>         0.1541
     35 C24         2.4306   -5.0882    5.4767 C.3       1 <0>        -0.1266
     36 C25         1.3335   -4.7568    6.5224 C.3       1 <0>         0.0726
     37 H6          1.1660   -5.6044    7.1871 H         1 <0>         0.1052
     38 C26         0.0888   -4.4941    5.6490 C.3       1 <0>        -0.0383
     39 N3          0.3087   -5.1739    4.3574 N.4       1 <0>        -0.5069
     40 O3          1.6848   -3.5915    7.2712 O.3       1 <0>        -0.3510
     41 C27         1.1734   -3.5820    8.6055 C.3       1 <0>         0.1018
     42 C28         1.6023   -2.3146    9.2989 C.ar      1 <0>        -0.1094
     43 C29         2.7950   -2.2782    9.9968 C.ar      1 <0>        -0.0951
     44 C30         3.1885   -1.1157   10.6328 C.ar      1 <0>        -0.1199
     45 C31         2.3894    0.0106   10.5706 C.ar      1 <0>        -0.1023
     46 C32         1.1972   -0.0255    9.8719 C.ar      1 <0>        -0.1212
     47 C33         0.8058   -1.1868    9.2323 C.ar      1 <0>        -0.0979
     48 O4          3.6065   -6.3747    3.1310 O.3       1 <0>        -0.5194
     49 H7          1.0039    1.9031    0.0027 H         1 <0>         0.0556
     50 H8         -0.5459    1.8868   -0.8726 H         1 <0>         0.0575
     51 H9         -0.5289    1.8773    0.9072 H         1 <0>         0.0544
     52 H10         0.5293   -0.3651    0.8851 H         1 <0>         0.0544
     53 H11        -1.0205   -0.3814    0.0098 H         1 <0>         0.0595
     54 H12         0.1910   -0.1364   -2.1398 H         1 <0>         0.0685
     55 H13         1.7408   -0.1202   -1.2645 H         1 <0>         0.0658
     56 H14         1.2661   -2.3884   -0.3821 H         1 <0>         0.0558
     57 H15        -0.2836   -2.4046   -1.2575 H         1 <0>         0.0648
     58 H16         0.9279   -2.1597   -3.4071 H         1 <0>         0.0869
     59 H17         2.4777   -2.1435   -2.5317 H         1 <0>         0.0820
     60 H18         3.4093   -4.8247   -2.5907 H         1 <0>         0.0892
     61 H19         2.8118   -4.4096   -0.9565 H         1 <0>         0.0786
     62 H20         1.9474   -6.1080   -4.8436 H         1 <0>         0.1097
     63 H21        -0.3122   -8.2351   -4.3890 H         1 <0>         0.0970
     64 H22         0.6146   -7.9561   -5.9589 H         1 <0>         0.1009
     65 H23         2.7893   -8.4997   -4.7717 H         1 <0>         0.1011
     66 H24         1.8625   -8.7786   -3.2018 H         1 <0>         0.0960
     67 H25         3.0288   -6.1276    0.5947 H         1 <0>         0.4133
     68 H26         2.4317   -8.4167    2.2463 H         1 <0>         0.0990
     69 H27         1.0641   -8.1265    3.3480 H         1 <0>         0.0867
     70 H28        -1.2251   -8.4096    2.5877 H         1 <0>         0.1307
     71 H29        -1.8514  -10.4900   -1.0866 H         1 <0>         0.1502
     72 H30         2.0531   -9.1133   -0.0472 H         1 <0>         0.1357
     73 H31         3.2042   -5.7222    5.9100 H         1 <0>         0.1282
     74 H32         2.8618   -4.1775    5.0611 H         1 <0>         0.1147
     75 H33        -0.7978   -4.9019    6.1346 H         1 <0>         0.1413
     76 H34        -0.0329   -3.4227    5.4895 H         1 <0>         0.1461
     77 H35         0.3070   -4.4941    3.6117 H         1 <0>         0.4318
     78 H36         0.0848   -3.6305    8.5778 H         1 <0>         0.0657
     79 H37         1.5616   -4.4431    9.1496 H         1 <0>         0.0707
     80 H38         3.4193   -3.1582   10.0454 H         1 <0>         0.1238
     81 H39         4.1200   -1.0874   11.1786 H         1 <0>         0.1288
     82 H40         2.6965    0.9187   11.0681 H         1 <0>         0.1285
     83 H41         0.5727    0.8543    9.8236 H         1 <0>         0.1278
     84 H42        -0.1239   -1.2140    8.6834 H         1 <0>         0.1211
     85 H43         3.5873   -7.3084    3.3819 H         1 <0>         0.3909
     86 H44        -0.4221   -5.8514    4.1993 H         1 <0>         0.4342
@<TRIPOS>BOND
     1    1    2 1
     2    1   49 1
     3    1   50 1
     4    1   51 1
     5    2    3 1
     6    2   52 1
     7    2   53 1
     8    3    4 1
     9    3   54 1
    10    3   55 1
    11    4    5 1
    12    4   56 1
    13    4   57 1
    14    5    6 1
    15    5   58 1
    16    5   59 1
    17    6   12 am
    18    6    7 1
    19    7    8 1
    20    7   60 1
    21    7   61 1
    22    8    9 1
    23    8   10 1
    24    8   17 1
    25   10   11 1
    26   10   12 1
    27   10   14 1
    28   12   13 2
    29   14   16 1
    30   14   15 1
    31   14   62 1
    32   15   16 1
    33   15   63 1
    34   15   64 1
    35   16   65 1
    36   16   66 1
    37   17   18 2
    38   17   19 am
    39   19   20 1
    40   19   67 1
    41   20   21 1
    42   20   22 1
    43   20   31 1
    44   22   23 1
    45   22   68 1
    46   22   69 1
    47   23   28 ar
    48   23   24 ar
    49   24   25 ar
    50   24   70 1
    51   25   26 ar
    52   25   30 1
    53   26   27 ar
    54   26   71 1
    55   27   28 ar
    56   27   29 1
    57   28   72 1
    58   31   32 1
    59   31   33 1
    60   31   48 1
    61   33   34 1
    62   33   39 1
    63   33   35 1
    64   35   36 1
    65   35   73 1
    66   35   74 1
    67   36   37 1
    68   36   38 1
    69   36   40 1
    70   38   39 1
    71   38   75 1
    72   38   76 1
    73   39   77 1
    74   39   86 1
    75   40   41 1
    76   41   42 1
    77   41   78 1
    78   41   79 1
    79   42   47 ar
    80   42   43 ar
    81   43   44 ar
    82   43   80 1
    83   44   45 ar
    84   44   81 1
    85   45   46 ar
    86   45   82 1
    87   46   47 ar
    88   46   83 1
    89   47   84 1
    90   48   85 1
@<TRIPOS>MOLECULE
CHEMBL250295
   79    83     0     0     0
SMALL
USER_CHARGES

@<TRIPOS>ATOM
      1 C1          0.5677    1.6738   -1.6982 C.3       1 <0>        -0.2033
      2 C2          0.9714    0.2512   -2.0907 C.3       1 <0>         0.0473
      3 C3          1.9843    0.3077   -3.2341 C.3       1 <0>        -0.0847
      4 C4          2.1647    1.7351   -3.6815 C.ar      1 <0>        -0.1167
      5 C5          1.9685    2.0784   -5.0065 C.ar      1 <0>        -0.1115
      6 C6          2.1351    3.3905   -5.4109 C.ar      1 <0>        -0.1082
      7 C7          2.4981    4.3579   -4.4902 C.ar      1 <0>        -0.0981
      8 C8          2.6951    4.0133   -3.1693 C.ar      1 <0>        -0.0667
      9 C9          2.5262    2.7031   -2.7620 C.ar      1 <0>        -0.1214
     10 C10         3.0964    5.0617   -2.1620 C.3       1 <0>        -0.0915
     11 C11         2.1356    5.0168   -0.9741 C.3       1 <0>        -0.1248
     12 C12         2.8958    5.3000    0.3252 C.3       1 <0>         0.2065
     13 H1          3.2816    6.3194    0.3131 H         1 <0>         0.0825
     14 N1          1.9415    5.1364    1.4494 N.am      1 <0>        -0.8153
     15 C13         2.4321    4.5913    2.5861 C.2       1 <0>         0.6027
     16 O1          3.1468    5.2803    3.2876 O.2       1 <0>        -0.4598
     17 C14         2.1542    3.2232    3.0224 C.ar      1 <0>        -0.1206
     18 C15         1.8020    2.2615    2.0672 C.ar      1 <0>        -0.0561
     19 C16         1.5556    0.9637    2.4569 C.ar      1 <0>        -0.1044
     20 C17         1.6320    0.6050    3.7879 C.ar      1 <0>        -0.0652
     21 C18         1.9827    1.5503    4.7441 C.ar      1 <0>         0.1570
     22 C19         2.2545    2.8548    4.3633 C.ar      1 <0>        -0.0640
     23 N2          2.0613    1.1853    6.0908 N.pl3     1 <0>        -0.8972
     24 C20         0.9445    0.6471    6.7350 C.ar      1 <0>         0.1114
     25 C21        -0.2230    1.3924    6.8437 C.ar      1 <0>        -0.1122
     26 C22        -1.3250    0.8574    7.4811 C.ar      1 <0>        -0.1116
     27 C23        -1.2673   -0.4185    8.0114 C.ar      1 <0>        -0.1064
     28 C24        -0.1068   -1.1632    7.9051 C.ar      1 <0>        -0.1069
     29 C25         0.9969   -0.6367    7.2635 C.ar      1 <0>        -0.0974
     30 S1          3.4782    1.3906    6.9230 S.o2      1 <0>         2.5868
     31 O2          3.4917    0.3408    7.8806 O.2       1 <0>        -0.9304
     32 O3          4.4806    1.4680    5.9187 O.2       1 <0>        -0.9312
     33 C26         3.3022    2.9930    7.7549 C.3       1 <0>        -0.6700
     34 C27         1.2220   -0.0704    1.4097 C.3       1 <0>         0.1260
     35 O4          1.9010    0.2610    0.1952 O.3       1 <0>        -0.3592
     36 C28         1.5822   -0.4420   -0.9015 C.2       1 <0>         0.4806
     37 O5          1.7859   -1.6325   -0.9354 O.2       1 <0>        -0.4235
     38 C29         4.0348    4.3245    0.4739 C.ar      1 <0>        -0.1179
     39 C30         3.8277    2.9787    0.2359 C.ar      1 <0>        -0.1113
     40 C31         4.8725    2.0839    0.3723 C.ar      1 <0>        -0.1163
     41 C32         6.1245    2.5350    0.7462 C.ar      1 <0>        -0.1036
     42 C33         6.3319    3.8810    0.9834 C.ar      1 <0>        -0.1118
     43 C34         5.2881    4.7764    0.8428 C.ar      1 <0>        -0.0901
     44 N3         -0.2181   -0.4902   -2.5303 N.4       1 <0>        -0.6225
     45 H2          1.3515    2.1176   -1.0842 H         1 <0>         0.1248
     46 H3          0.4278    2.2731   -2.5978 H         1 <0>         0.1191
     47 H4         -0.3637    1.6442   -1.1328 H         1 <0>         0.0883
     48 H5          2.9402   -0.0887   -2.8918 H         1 <0>         0.1182
     49 H6          1.6221   -0.2913   -4.0696 H         1 <0>         0.1103
     50 H7          1.6852    1.3231   -5.7246 H         1 <0>         0.1262
     51 H8          1.9815    3.6603   -6.4453 H         1 <0>         0.1310
     52 H9          2.6276    5.3825   -4.8061 H         1 <0>         0.1306
     53 H10         2.6759    2.4356   -1.7264 H         1 <0>         0.1355
     54 H11         4.1113    4.8647   -1.8166 H         1 <0>         0.0913
     55 H12         3.0548    6.0470   -2.6264 H         1 <0>         0.0829
     56 H13         1.3578    5.7684   -1.1093 H         1 <0>         0.0803
     57 H14         1.6768    4.0298   -0.9170 H         1 <0>         0.0665
     58 H15         1.0131    5.4069    1.3733 H         1 <0>         0.4134
     59 H16         1.7233    2.5373    1.0260 H         1 <0>         0.1416
     60 H17         1.4187   -0.4109    4.0861 H         1 <0>         0.1403
     61 H18         2.5440    3.5852    5.1043 H         1 <0>         0.1369
     62 H19        -0.2685    2.3891    6.4304 H         1 <0>         0.1271
     63 H20        -2.2328    1.4362    7.5660 H         1 <0>         0.1305
     64 H21        -2.1304   -0.8343    8.5101 H         1 <0>         0.1299
     65 H22        -0.0650   -2.1591    8.3206 H         1 <0>         0.1332
     66 H23         1.9013   -1.2205    7.1765 H         1 <0>         0.1377
     67 H24         2.3684    3.0100    8.3168 H         1 <0>         0.1346
     68 H25         4.1394    3.1422    8.4368 H         1 <0>         0.1397
     69 H26         3.2932    3.7895    7.0109 H         1 <0>         0.1318
     70 H27         1.5454   -1.0535    1.7518 H         1 <0>         0.0958
     71 H28         0.1461   -0.0790    1.2353 H         1 <0>         0.0864
     72 H29         2.8496    2.6262   -0.0563 H         1 <0>         0.1203
     73 H30         4.7105    1.0323    0.1870 H         1 <0>         0.1188
     74 H31         6.9406    1.8358    0.8535 H         1 <0>         0.1244
     75 H32         7.3100    4.2334    1.2758 H         1 <0>         0.1270
     76 H33         5.4510    5.8284    1.0244 H         1 <0>         0.1259
     77 H34        -0.6294   -0.0252   -3.3257 H         1 <0>         0.4494
     78 H35         0.0471   -1.4286   -2.7894 H         1 <0>         0.4442
     79 H36        -0.8892   -0.5261   -1.7777 H         1 <0>         0.4370
@<TRIPOS>BOND
     1    1    2 1
     2    1   45 1
     3    1   46 1
     4    1   47 1
     5    2   36 1
     6    2    3 1
     7    2   44 1
     8    3    4 1
     9    3   48 1
    10    3   49 1
    11    4    9 ar
    12    4    5 ar
    13    5    6 ar
    14    5   50 1
    15    6    7 ar
    16    6   51 1
    17    7    8 ar
    18    7   52 1
    19    8    9 ar
    20    8   10 1
    21    9   53 1
    22   10   11 1
    23   10   54 1
    24   10   55 1
    25   11   12 1
    26   11   56 1
    27   11   57 1
    28   12   13 1
    29   12   14 1
    30   12   38 1
    31   14   15 am
    32   14   58 1
    33   15   16 2
    34   15   17 1
    35   17   22 ar
    36   17   18 ar
    37   18   19 ar
    38   18   59 1
    39   19   20 ar
    40   19   34 1
    41   20   21 ar
    42   20   60 1
    43   21   22 ar
    44   21   23 1
    45   22   61 1
    46   23   24 1
    47   23   30 1
    48   24   29 ar
    49   24   25 ar
    50   25   26 ar
    51   25   62 1
    52   26   27 ar
    53   26   63 1
    54   27   28 ar
    55   27   64 1
    56   28   29 ar
    57   28   65 1
    58   29   66 1
    59   30   31 2
    60   30   32 2
    61   30   33 1
    62   33   67 1
    63   33   68 1
    64   33   69 1
    65   34   35 1
    66   34   70 1
    67   34   71 1
    68   35   36 1
    69   36   37 2
    70   38   43 ar
    71   38   39 ar
    72   39   40 ar
    73   39   72 1
    74   40   41 ar
    75   40   73 1
    76   41   42 ar
    77   41   74 1
    78   42   43 ar
    79   42   75 1
    80   43   76 1
    81   44   77 1
    82   44   78 1
    83   44   79 1
@<TRIPOS>MOLECULE
CHEMBL250295__1
   78    82     0     0     0
SMALL
USER_CHARGES

@<TRIPOS>ATOM
      1 C1          0.5677    1.6738   -1.6982 C.3       1 <0>        -0.2034
      2 C2          0.9714    0.2512   -2.0907 C.3       1 <0>         0.1180
      3 C3          1.9843    0.3077   -3.2341 C.3       1 <0>        -0.0691
      4 C4          2.1647    1.7351   -3.6815 C.ar      1 <0>        -0.0860
      5 C5          1.9685    2.0784   -5.0065 C.ar      1 <0>        -0.1174
      6 C6          2.1351    3.3905   -5.4109 C.ar      1 <0>        -0.1159
      7 C7          2.4981    4.3579   -4.4902 C.ar      1 <0>        -0.1159
      8 C8          2.6951    4.0133   -3.1693 C.ar      1 <0>        -0.0794
      9 C9          2.5262    2.7031   -2.7620 C.ar      1 <0>        -0.1183
     10 C10         3.0964    5.0617   -2.1620 C.3       1 <0>        -0.0832
     11 C11         2.1356    5.0168   -0.9741 C.3       1 <0>        -0.1301
     12 C12         2.8958    5.3000    0.3252 C.3       1 <0>         0.2091
     13 H1          3.2816    6.3194    0.3131 H         1 <0>         0.0789
     14 N1          1.9415    5.1364    1.4494 N.am      1 <0>        -0.8157
     15 C13         2.4321    4.5913    2.5861 C.2       1 <0>         0.6083
     16 O1          3.1468    5.2803    3.2876 O.2       1 <0>        -0.4690
     17 C14         2.1542    3.2232    3.0224 C.ar      1 <0>        -0.1272
     18 C15         1.8020    2.2615    2.0672 C.ar      1 <0>        -0.0516
     19 C16         1.5556    0.9637    2.4569 C.ar      1 <0>        -0.0909
     20 C17         1.6320    0.6050    3.7879 C.ar      1 <0>        -0.0673
     21 C18         1.9827    1.5503    4.7441 C.ar      1 <0>         0.1470
     22 C19         2.2545    2.8548    4.3633 C.ar      1 <0>        -0.0694
     23 N2          2.0613    1.1853    6.0908 N.pl3     1 <0>        -0.8954
     24 C20         0.9445    0.6471    6.7350 C.ar      1 <0>         0.1159
     25 C21        -0.2230    1.3924    6.8437 C.ar      1 <0>        -0.1115
     26 C22        -1.3250    0.8574    7.4811 C.ar      1 <0>        -0.1123
     27 C23        -1.2673   -0.4185    8.0114 C.ar      1 <0>        -0.1092
     28 C24        -0.1068   -1.1632    7.9051 C.ar      1 <0>        -0.1080
     29 C25         0.9969   -0.6367    7.2635 C.ar      1 <0>        -0.0976
     30 S1          3.4782    1.3906    6.9230 S.o2      1 <0>         2.5886
     31 O2          3.4917    0.3408    7.8806 O.2       1 <0>        -0.9351
     32 O3          4.4806    1.4680    5.9187 O.2       1 <0>        -0.9294
     33 C26         3.3022    2.9930    7.7549 C.3       1 <0>        -0.6713
     34 C27         1.2220   -0.0704    1.4097 C.3       1 <0>         0.1251
     35 O4          1.9010    0.2610    0.1952 O.3       1 <0>        -0.3830
     36 C28         1.5822   -0.4420   -0.9015 C.2       1 <0>         0.4881
     37 O5          1.7859   -1.6325   -0.9354 O.2       1 <0>        -0.4403
     38 C29         4.0348    4.3245    0.4739 C.ar      1 <0>        -0.1182
     39 C30         3.8277    2.9787    0.2359 C.ar      1 <0>        -0.1051
     40 C31         4.8725    2.0839    0.3723 C.ar      1 <0>        -0.1131
     41 C32         6.1245    2.5350    0.7462 C.ar      1 <0>        -0.1061
     42 C33         6.3319    3.8810    0.9834 C.ar      1 <0>        -0.1181
     43 C34         5.2881    4.7764    0.8428 C.ar      1 <0>        -0.0935
     44 N3         -0.2181   -0.4902   -2.5303 N.3       1 <0>        -0.8211
     45 H2          1.3515    2.1176   -1.0842 H         1 <0>         0.0843
     46 H3          0.4278    2.2731   -2.5978 H         1 <0>         0.0869
     47 H4         -0.3637    1.6442   -1.1328 H         1 <0>         0.0577
     48 H5          2.9402   -0.0887   -2.8918 H         1 <0>         0.0850
     49 H6          1.6221   -0.2913   -4.0696 H         1 <0>         0.0980
     50 H7          1.6852    1.3231   -5.7246 H         1 <0>         0.1226
     51 H8          1.9815    3.6603   -6.4453 H         1 <0>         0.1224
     52 H9          2.6276    5.3825   -4.8061 H         1 <0>         0.1213
     53 H10         2.6759    2.4356   -1.7264 H         1 <0>         0.1350
     54 H11         4.1113    4.8647   -1.8166 H         1 <0>         0.0855
     55 H12         3.0548    6.0470   -2.6264 H         1 <0>         0.0759
     56 H13         1.3578    5.7684   -1.1093 H         1 <0>         0.0763
     57 H14         1.6768    4.0298   -0.9170 H         1 <0>         0.0742
     58 H15         1.0131    5.4069    1.3733 H         1 <0>         0.4127
     59 H16         1.7233    2.5373    1.0260 H         1 <0>         0.1454
     60 H17         1.4187   -0.4109    4.0861 H         1 <0>         0.1382
     61 H18         2.5440    3.5852    5.1043 H         1 <0>         0.1329
     62 H19        -0.2685    2.3891    6.4304 H         1 <0>         0.1275
     63 H20        -2.2328    1.4362    7.5660 H         1 <0>         0.1292
     64 H21        -2.1304   -0.8342    8.5101 H         1 <0>         0.1280
     65 H22        -0.0650   -2.1591    8.3206 H         1 <0>         0.1316
     66 H23         1.9013   -1.2205    7.1765 H         1 <0>         0.1374
     67 H24         2.3684    3.0100    8.3168 H         1 <0>         0.1330
     68 H25         4.1394    3.1422    8.4368 H         1 <0>         0.1369
     69 H26         3.2932    3.7896    7.0109 H         1 <0>         0.1322
     70 H27         1.5454   -1.0535    1.7518 H         1 <0>         0.0844
     71 H28         0.1461   -0.0790    1.2353 H         1 <0>         0.0804
     72 H29         2.8496    2.6262   -0.0563 H         1 <0>         0.1292
     73 H30         4.7105    1.0323    0.1870 H         1 <0>         0.1221
     74 H31         6.9406    1.8358    0.8535 H         1 <0>         0.1219
     75 H32         7.3100    4.2334    1.2758 H         1 <0>         0.1229
     76 H33         5.4510    5.8284    1.0244 H         1 <0>         0.1223
     77 H34        -0.9058   -0.5401   -1.7936 H         1 <0>         0.3454
     78 H35        -0.6113   -0.0812   -3.3647 H         1 <0>         0.3601
@<TRIPOS>BOND
     1    1    2 1
     2    1   45 1
     3    1   46 1
     4    1   47 1
     5    2   36 1
     6    2    3 1
     7    2   44 1
     8    3    4 1
     9    3   48 1
    10    3   49 1
    11    4    9 ar
    12    4    5 ar
    13    5    6 ar
    14    5   50 1
    15    6    7 ar
    16    6   51 1
    17    7    8 ar
    18    7   52 1
    19    8    9 ar
    20    8   10 1
    21    9   53 1
    22   10   11 1
    23   10   54 1
    24   10   55 1
    25   11   12 1
    26   11   56 1
    27   11   57 1
    28   12   13 1
    29   12   14 1
    30   12   38 1
    31   14   15 am
    32   14   58 1
    33   15   16 2
    34   15   17 1
    35   17   22 ar
    36   17   18 ar
    37   18   19 ar
    38   18   59 1
    39   19   20 ar
    40   19   34 1
    41   20   21 ar
    42   20   60 1
    43   21   22 ar
    44   21   23 1
    45   22   61 1
    46   23   24 1
    47   23   30 1
    48   24   29 ar
    49   24   25 ar
    50   25   26 ar
    51   25   62 1
    52   26   27 ar
    53   26   63 1
    54   27   28 ar
    55   27   64 1
    56   28   29 ar
    57   28   65 1
    58   29   66 1
    59   30   31 2
    60   30   32 2
    61   30   33 1
    62   33   67 1
    63   33   68 1
    64   33   69 1
    65   34   35 1
    66   34   70 1
    67   34   71 1
    68   35   36 1
    69   36   37 2
    70   38   43 ar
    71   38   39 ar
    72   39   40 ar
    73   39   72 1
    74   40   41 ar
    75   40   73 1
    76   41   42 ar
    77   41   74 1
    78   42   43 ar
    79   42   75 1
    80   43   76 1
    81   44   77 1
    82   44   78 1
@<TRIPOS>MOLECULE
CHEMBL560497
   79    82     0     0     0
SMALL
USER_CHARGES

@<TRIPOS>ATOM
      1 C1         -0.0187    1.5258    0.0104 C.3       1 <0>        -0.1680
      2 C2          0.0021   -0.0041    0.0020 C.3       1 <0>         0.1212
      3 N1          0.6878   -0.4765   -1.2033 N.pl3     1 <0>        -0.7457
      4 C3          0.8319   -1.8470   -1.4331 C.ar      1 <0>         0.2369
      5 C4          0.3204   -2.7599   -0.5223 C.ar      1 <0>        -0.1915
      6 C5          0.4643   -4.1279   -0.7527 C.ar      1 <0>        -0.0600
      7 C6          1.1227   -4.5734   -1.8992 C.ar      1 <0>        -0.1453
      8 C7          1.6317   -3.6553   -2.8056 C.ar      1 <0>         0.2209
      9 C8          1.4819   -2.2939   -2.5757 C.ar      1 <0>        -0.2000
     10 N2          2.2915   -4.1006   -3.9537 N.pl3     1 <0>        -0.9357
     11 C9          3.2893   -3.2581   -4.6299 C.3       1 <0>         0.1002
     12 C10         2.8738   -3.0444   -6.0842 C.3       1 <0>        -0.1588
     13 C11         2.8851   -4.3660   -6.8487 C.3       1 <0>        -0.1152
     14 C12         1.7297   -5.2521   -6.3688 C.3       1 <0>        -0.6079
     15 S1          1.9780   -5.6041   -4.5953 S.o2      1 <0>         2.5831
     16 O1          3.1735   -6.3463   -4.3978 O.2       1 <0>        -0.9375
     17 O2          0.7568   -6.0141   -3.9955 O.2       1 <0>        -0.9373
     18 C13        -0.0793   -5.1038    0.2162 C.2       1 <0>         0.5639
     19 O3          0.0469   -6.2957    0.0140 O.2       1 <0>        -0.4954
     20 N3         -0.7146   -4.6717    1.3235 N.am      1 <0>        -0.7251
     21 C14        -1.2531   -5.6386    2.2834 C.3       1 <0>         0.1270
     22 H1         -1.6191   -6.5155    1.7493 H         1 <0>         0.1098
     23 C15        -0.1506   -6.0582    3.2576 C.3       1 <0>        -0.1006
     24 C16         0.9271   -6.7985    2.5081 C.ar      1 <0>        -0.0807
     25 C17         0.8481   -8.1706    2.3599 C.ar      1 <0>        -0.1072
     26 C18         1.8366   -8.8496    1.6724 C.ar      1 <0>        -0.1111
     27 C19         2.9039   -8.1564    1.1327 C.ar      1 <0>        -0.1096
     28 C20         2.9824   -6.7842    1.2801 C.ar      1 <0>        -0.1085
     29 C21         1.9917   -6.1047    1.9639 C.ar      1 <0>        -0.1051
     30 C22        -2.4044   -4.9979    3.0612 C.3       1 <0>         0.0764
     31 H2         -3.1493   -4.6192    2.3614 H         1 <0>         0.1337
     32 C23        -3.0474   -6.0439    3.9741 C.3       1 <0>        -0.0505
     33 N4         -4.2258   -5.4625    4.6309 N.4       1 <0>        -0.5007
     34 C24        -4.8432   -6.4667    5.5074 C.3       1 <0>         0.0230
     35 C25        -5.3918   -7.6187    4.6599 C.3       1 <0>        -0.1807
     36 C26        -6.1020   -8.6210    5.5736 C.3       1 <0>         0.0619
     37 O4         -7.1422   -7.9546    6.2919 O.3       1 <0>        -0.3677
     38 C27        -6.6830   -6.8984    7.1379 C.3       1 <0>         0.0620
     39 C28        -5.9961   -5.8270    6.2871 C.3       1 <0>        -0.1791
     40 O5         -1.9023   -3.9191    3.8526 O.3       1 <0>        -0.5497
     41 H3          1.0039    1.9031    0.0027 H         1 <0>         0.0639
     42 H4         -0.5459    1.8868   -0.8726 H         1 <0>         0.0634
     43 H5         -0.5289    1.8773    0.9072 H         1 <0>         0.0743
     44 H6          0.5293   -0.3651    0.8851 H         1 <0>         0.0592
     45 H7         -1.0205   -0.3814    0.0098 H         1 <0>         0.0580
     46 H8          1.0417    0.1622   -1.8418 H         1 <0>         0.4029
     47 H9         -0.1885   -2.4116    0.3644 H         1 <0>         0.1225
     48 H10         1.2361   -5.6320   -2.0805 H         1 <0>         0.1463
     49 H11         1.8756   -1.5811   -3.2852 H         1 <0>         0.1327
     50 H12         3.3532   -2.2943   -4.1249 H         1 <0>         0.1017
     51 H13         4.2614   -3.7500   -4.5983 H         1 <0>         0.0910
     52 H14         1.8694   -2.6219   -6.1122 H         1 <0>         0.0814
     53 H15         3.5680   -2.3500   -6.5575 H         1 <0>         0.1009
     54 H16         2.7722   -4.1690   -7.9148 H         1 <0>         0.0952
     55 H17         3.8314   -4.8779   -6.6737 H         1 <0>         0.0867
     56 H18         0.7830   -4.7317   -6.5137 H         1 <0>         0.1382
     57 H19         1.7256   -6.1864   -6.9303 H         1 <0>         0.1394
     58 H20        -0.8154   -3.7206    1.4848 H         1 <0>         0.4052
     59 H21         0.2765   -5.1718    3.7267 H         1 <0>         0.0815
     60 H22        -0.5716   -6.7082    4.0247 H         1 <0>         0.0776
     61 H23         0.0142   -8.7121    2.7816 H         1 <0>         0.1111
     62 H24         1.7752   -9.9217    1.5573 H         1 <0>         0.1197
     63 H25         3.6765   -8.6870    0.5961 H         1 <0>         0.1210
     64 H26         3.8164   -6.2427    0.8587 H         1 <0>         0.1186
     65 H27         2.0511   -5.0321    2.0759 H         1 <0>         0.1109
     66 H28        -3.3507   -6.9066    3.3810 H         1 <0>         0.1479
     67 H29        -2.3279   -6.3577    4.7304 H         1 <0>         0.1421
     68 H30        -3.9451   -4.6639    5.1800 H         1 <0>         0.4330
     69 H31        -4.0984   -6.8485    6.2057 H         1 <0>         0.1419
     70 H32        -6.0991   -7.2280    3.9284 H         1 <0>         0.0986
     71 H33        -4.5698   -8.1150    4.1441 H         1 <0>         0.1005
     72 H34        -6.5314   -9.4213    4.9710 H         1 <0>         0.1172
     73 H35        -5.3850   -9.0414    6.2788 H         1 <0>         0.0665
     74 H36        -7.5310   -6.4578    7.6622 H         1 <0>         0.1174
     75 H37        -5.9736   -7.2963    7.8636 H         1 <0>         0.0665
     76 H38        -5.6063   -5.0419    6.9350 H         1 <0>         0.1019
     77 H39        -6.7157   -5.4001    5.5884 H         1 <0>         0.0980
     78 H40        -1.2335   -4.1835    4.4990 H         1 <0>         0.3914
     79 H41        -4.8919   -5.1720    3.9309 H         1 <0>         0.4282
@<TRIPOS>BOND
     1    1    2 1
     2    1   41 1
     3    1   42 1
     4    1   43 1
     5    2    3 1
     6    2   44 1
     7    2   45 1
     8    3    4 1
     9    3   46 1
    10    4    9 ar
    11    4    5 ar
    12    5    6 ar
    13    5   47 1
    14    6    7 ar
    15    6   18 1
    16    7    8 ar
    17    7   48 1
    18    8    9 ar
    19    8   10 1
    20    9   49 1
    21   10   15 1
    22   10   11 1
    23   11   12 1
    24   11   50 1
    25   11   51 1
    26   12   13 1
    27   12   52 1
    28   12   53 1
    29   13   14 1
    30   13   54 1
    31   13   55 1
    32   14   15 1
    33   14   56 1
    34   14   57 1
    35   15   16 2
    36   15   17 2
    37   18   19 2
    38   18   20 am
    39   20   21 1
    40   20   58 1
    41   21   22 1
    42   21   23 1
    43   21   30 1
    44   23   24 1
    45   23   59 1
    46   23   60 1
    47   24   29 ar
    48   24   25 ar
    49   25   26 ar
    50   25   61 1
    51   26   27 ar
    52   26   62 1
    53   27   28 ar
    54   27   63 1
    55   28   29 ar
    56   28   64 1
    57   29   65 1
    58   30   31 1
    59   30   32 1
    60   30   40 1
    61   32   33 1
    62   32   66 1
    63   32   67 1
    64   33   34 1
    65   33   68 1
    66   33   79 1
    67   34   39 1
    68   34   35 1
    69   34   69 1
    70   35   36 1
    71   35   70 1
    72   35   71 1
    73   36   37 1
    74   36   72 1
    75   36   73 1
    76   37   38 1
    77   38   39 1
    78   38   74 1
    79   38   75 1
    80   39   76 1
    81   39   77 1
    82   40   78 1
@<TRIPOS>MOLECULE
CHEMBL248884
   80    84     0     0     0
SMALL
USER_CHARGES

@<TRIPOS>ATOM
      1 C1          0.0639    1.4891    1.0901 C.3       1 <0>        -0.1816
      2 C2          0.5427    0.0474    0.9255 C.3       1 <0>         0.0677
      3 C3          0.8520   -0.2482   -0.5374 C.3       1 <0>        -0.0931
      4 C4          1.2528    1.0010   -1.2751 C.ar      1 <0>        -0.0953
      5 C5          0.4470    1.4704   -2.3009 C.ar      1 <0>        -0.1127
      6 C6          0.8093    2.6113   -2.9909 C.ar      1 <0>        -0.1062
      7 C7          1.9677    3.2905   -2.6627 C.ar      1 <0>        -0.1000
      8 C8          2.7661    2.8202   -1.6376 C.ar      1 <0>        -0.0692
      9 C9          2.4156    1.6717   -0.9543 C.ar      1 <0>        -0.1154
     10 C10         4.0208    3.5682   -1.2485 C.3       1 <0>        -0.0904
     11 C11         3.6530    4.7120   -0.3022 C.3       1 <0>        -0.1268
     12 C12         3.6904    4.2194    1.1557 C.3       1 <0>         0.1779
     13 H1          3.5878    3.1388    1.1526 H         1 <0>         0.0914
     14 N1          5.0030    4.6404    1.6989 N.am      1 <0>        -0.7122
     15 C13         5.4367    4.2583    2.9188 C.2       1 <0>         0.5511
     16 O1          6.4190    4.8808    3.3392 O.2       1 <0>        -0.5491
     17 C14         4.9563    3.2059    3.8069 C.ar      1 <0>        -0.0881
     18 C15         4.0107    2.2519    3.4648 C.ar      1 <0>        -0.0641
     19 C16         3.6028    1.2959    4.3720 C.ar      1 <0>        -0.1093
     20 C17         4.1553    1.2551    5.6425 C.ar      1 <0>        -0.0718
     21 C18         5.1189    2.1917    5.9885 C.ar      1 <0>         0.1530
     22 C19         5.5255    3.1614    5.0963 C.ar      1 <0>        -0.0747
     23 N2          5.6892    2.1474    7.2649 N.pl3     1 <0>        -0.9003
     24 C20         4.8820    2.2926    8.3960 C.ar      1 <0>         0.1172
     25 C21         4.1657    3.4663    8.5943 C.ar      1 <0>        -0.1117
     26 C22         3.3689    3.6064    9.7134 C.ar      1 <0>        -0.1110
     27 C23         3.2839    2.5802   10.6365 C.ar      1 <0>        -0.1075
     28 C24         3.9956    1.4105   10.4424 C.ar      1 <0>        -0.1075
     29 C25         4.7895    1.2612    9.3223 C.ar      1 <0>        -0.0958
     30 S1          7.3210    1.9230    7.4354 S.o2      1 <0>         2.5891
     31 O2          7.4757    1.3548    8.7287 O.2       1 <0>        -0.9316
     32 O3          7.7108    1.2007    6.2755 O.2       1 <0>        -0.9358
     33 C26         8.0277    3.5933    7.3983 C.3       1 <0>        -0.6717
     34 C27         2.5498    0.2815    4.0080 C.3       1 <0>         0.1045
     35 O4          1.8033    0.7316    2.8802 O.3       1 <0>        -0.3718
     36 C28         1.7880   -0.1843    1.7820 C.3       1 <0>         0.0323
     37 C29         2.5650    4.8632    1.9248 C.ar      1 <0>        -0.1075
     38 C30         1.4855    4.1038    2.3357 C.ar      1 <0>        -0.1143
     39 C31         0.4535    4.6942    3.0409 C.ar      1 <0>        -0.1201
     40 C32         0.5011    6.0439    3.3355 C.ar      1 <0>        -0.1112
     41 C33         1.5810    6.8032    2.9254 C.ar      1 <0>        -0.1158
     42 C34         2.6151    6.2119    2.2239 C.ar      1 <0>        -0.0960
     43 N3         -0.5219   -0.8628    1.3823 N.4       1 <0>        -0.6385
     44 H2          0.8372    2.1714    0.7372 H         1 <0>         0.1178
     45 H3         -0.8456    1.6385    0.5081 H         1 <0>         0.0836
     46 H4         -0.1417    1.6858    2.1423 H         1 <0>         0.0953
     47 H5          1.6629   -0.9784   -0.5954 H         1 <0>         0.1060
     48 H6         -0.0351   -0.6763   -1.0119 H         1 <0>         0.0982
     49 H7         -0.4599    0.9441   -2.5595 H         1 <0>         0.1241
     50 H8          0.1835    2.9753   -3.7926 H         1 <0>         0.1282
     51 H9          2.2475    4.1812   -3.2051 H         1 <0>         0.1301
     52 H10         3.0573    1.2980   -0.1700 H         1 <0>         0.1196
     53 H11         4.7094    2.8882   -0.7480 H         1 <0>         0.0794
     54 H12         4.4940    3.9737   -2.1423 H         1 <0>         0.0870
     55 H13         4.3628    5.5272   -0.4232 H         1 <0>         0.0849
     56 H14         2.6480    5.0631   -0.5313 H         1 <0>         0.0870
     57 H15         5.5826    5.2251    1.1495 H         1 <0>         0.4166
     58 H16         3.5832    2.2170    2.4771 H         1 <0>         0.1341
     59 H17         3.8420    0.5041    6.3522 H         1 <0>         0.1399
     60 H18         6.2761    3.8861    5.3770 H         1 <0>         0.1459
     61 H19         4.2322    4.2684    7.8741 H         1 <0>         0.1265
     62 H20         2.8118    4.5186    9.8682 H         1 <0>         0.1297
     63 H21         2.6606    2.6927   11.5113 H         1 <0>         0.1292
     64 H22         3.9272    0.6112   11.1654 H         1 <0>         0.1322
     65 H23         5.3413    0.3456    9.1688 H         1 <0>         0.1334
     66 H24         7.5156    4.2208    8.1278 H         1 <0>         0.1343
     67 H25         9.0889    3.5444    7.6424 H         1 <0>         0.1391
     68 H26         7.9032    4.0184    6.4023 H         1 <0>         0.1340
     69 H27         3.0299   -0.6680    3.7705 H         1 <0>         0.0819
     70 H28         1.8760    0.1412    4.8541 H         1 <0>         0.0966
     71 H29         1.7737   -1.2062    2.1655 H         1 <0>         0.0812
     72 H30         2.6810   -0.0419    1.1753 H         1 <0>         0.1024
     73 H31         1.4482    3.0493    2.1055 H         1 <0>         0.1313
     74 H32        -0.3902    4.1010    3.3613 H         1 <0>         0.1182
     75 H33        -0.3055    6.5053    3.8858 H         1 <0>         0.1225
     76 H34         1.6181    7.8578    3.1553 H         1 <0>         0.1242
     77 H35         3.4606    6.8043    1.9067 H         1 <0>         0.1210
     78 H36        -1.3523   -0.7135    0.8290 H         1 <0>         0.4367
     79 H37        -0.2153   -1.8184    1.2776 H         1 <0>         0.4332
     80 H38        -0.7272   -0.6799    2.3531 H         1 <0>         0.4380
@<TRIPOS>BOND
     1    1    2 1
     2    1   44 1
     3    1   45 1
     4    1   46 1
     5    2   36 1
     6    2    3 1
     7    2   43 1
     8    3    4 1
     9    3   47 1
    10    3   48 1
    11    4    9 ar
    12    4    5 ar
    13    5    6 ar
    14    5   49 1
    15    6    7 ar
    16    6   50 1
    17    7    8 ar
    18    7   51 1
    19    8    9 ar
    20    8   10 1
    21    9   52 1
    22   10   11 1
    23   10   53 1
    24   10   54 1
    25   11   12 1
    26   11   55 1
    27   11   56 1
    28   12   13 1
    29   12   14 1
    30   12   37 1
    31   14   15 am
    32   14   57 1
    33   15   16 2
    34   15   17 1
    35   17   22 ar
    36   17   18 ar
    37   18   19 ar
    38   18   58 1
    39   19   20 ar
    40   19   34 1
    41   20   21 ar
    42   20   59 1
    43   21   22 ar
    44   21   23 1
    45   22   60 1
    46   23   24 1
    47   23   30 1
    48   24   29 ar
    49   24   25 ar
    50   25   26 ar
    51   25   61 1
    52   26   27 ar
    53   26   62 1
    54   27   28 ar
    55   27   63 1
    56   28   29 ar
    57   28   64 1
    58   29   65 1
    59   30   31 2
    60   30   32 2
    61   30   33 1
    62   33   66 1
    63   33   67 1
    64   33   68 1
    65   34   35 1
    66   34   69 1
    67   34   70 1
    68   35   36 1
    69   36   71 1
    70   36   72 1
    71   37   42 ar
    72   37   38 ar
    73   38   39 ar
    74   38   73 1
    75   39   40 ar
    76   39   74 1
    77   40   41 ar
    78   40   75 1
    79   41   42 ar
    80   41   76 1
    81   42   77 1
    82   43   78 1
    83   43   79 1
    84   43   80 1
@<TRIPOS>MOLECULE
CHEMBL521845
   77    82     0     0     0
SMALL
USER_CHARGES

@<TRIPOS>ATOM
      1 C1          0.4432    2.6220    0.3024 C.3       1 <0>        -0.1212
      2 C2          0.5540    1.1312    0.1117 C.ar      1 <0>        -0.0673
      3 C3          0.6730    0.6036   -1.1583 C.ar      1 <0>        -0.1175
      4 C4          0.7748   -0.7644   -1.3347 C.ar      1 <0>        -0.1012
      5 C5          0.7584   -1.6112   -0.2408 C.ar      1 <0>        -0.1221
      6 C6          0.6403   -1.0944    1.0333 C.ar      1 <0>        -0.0992
      7 C7          0.5422    0.2835    1.2172 C.ar      1 <0>        -0.0744
      8 C8          0.4201    0.8453    2.5852 C.ar      1 <0>        -0.0233
      9 C9          1.2488    1.8907    2.9884 C.ar      1 <0>        -0.0727
     10 C10         1.1306    2.4097    4.2616 C.ar      1 <0>        -0.1084
     11 C11         0.1916    1.8942    5.1371 C.ar      1 <0>        -0.0990
     12 C12        -0.6330    0.8565    4.7423 C.ar      1 <0>        -0.1564
     13 C13        -0.5273    0.3336    3.4692 C.ar      1 <0>        -0.0854
     14 C14        -1.6528    0.2995    5.7019 C.3       1 <0>         0.0262
     15 N1         -2.9164    1.0341    5.5545 N.4       1 <0>        -0.3813
     16 C15        -2.7245    2.4248    5.9828 C.3       1 <0>        -0.1105
     17 C16        -4.0130    3.2171    5.7439 C.3       1 <0>        -0.1337
     18 C17        -5.1526    2.5738    6.5275 C.3       1 <0>         0.1275
     19 C18        -5.2910    1.1011    6.1549 C.3       1 <0>        -0.1354
     20 C19        -3.9505    0.3950    6.3771 C.3       1 <0>        -0.1055
     21 C20        -6.4486    3.3083    6.2791 C.2       1 <0>         0.4537
     22 N2         -6.8312    3.7660    7.4466 N.2       1 <0>        -0.5744
     23 C21        -5.9801    3.4422    8.4260 C.2       1 <0>         0.6623
     24 O1         -6.1319    3.7606    9.5911 O.2       1 <0>        -0.4832
     25 N3         -4.9338    2.7222    7.9722 N.am      1 <0>        -0.5846
     26 C22        -3.8638    2.2214    8.7211 C.ar      1 <0>         0.2379
     27 C23        -2.8584    1.4934    8.0974 C.ar      1 <0>        -0.3268
     28 C24        -1.8025    1.0001    8.8383 C.ar      1 <0>        -0.0620
     29 C25        -1.7445    1.2294   10.2006 C.ar      1 <0>        -0.1691
     30 C26        -2.7448    1.9543   10.8265 C.ar      1 <0>         0.1669
     31 C27        -3.8017    2.4559   10.0879 C.ar      1 <0>        -0.1858
     32 F1         -2.6858    2.1764   12.1578 F         1 <0>        -0.1167
     33 N4         -7.0833    3.4624    5.0965 N.pl3     1 <0>        -0.6413
     34 C28        -8.3417    4.2099    5.0324 C.3       1 <0>         0.1397
     35 C29        -9.5067    3.2770    5.3692 C.3       1 <0>        -0.1287
     36 C30       -10.8208    4.0577    5.3023 C.3       1 <0>        -0.1191
     37 C31       -11.0089    4.6198    3.8918 C.3       1 <0>        -0.1257
     38 C32        -9.8439    5.5527    3.5550 C.3       1 <0>        -0.1176
     39 C33        -8.5297    4.7720    3.6219 C.3       1 <0>        -0.1271
     40 H1          1.4399    3.0494    0.4114 H         1 <0>         0.0754
     41 H2         -0.0488    3.0636   -0.5643 H         1 <0>         0.0717
     42 H3         -0.1418    2.8313    1.1980 H         1 <0>         0.0649
     43 H4          0.6864    1.2601   -2.0157 H         1 <0>         0.1287
     44 H5          0.8671   -1.1730   -2.3301 H         1 <0>         0.1287
     45 H6          0.8379   -2.6786   -0.3843 H         1 <0>         0.1284
     46 H7          0.6272   -1.7564    1.8865 H         1 <0>         0.1233
     47 H8          1.9824    2.2936    2.3059 H         1 <0>         0.1373
     48 H9          1.7726    3.2196    4.5752 H         1 <0>         0.1393
     49 H10         0.1025    2.3033    6.1326 H         1 <0>         0.1332
     50 H11        -1.1751   -0.4735    3.1603 H         1 <0>         0.1327
     51 H12        -1.8184   -0.7556    5.4841 H         1 <0>         0.1457
     52 H13        -1.2873    0.4067    6.7232 H         1 <0>         0.1434
     53 H14        -2.4760    2.4470    7.0439 H         1 <0>         0.2108
     54 H15        -1.9118    2.8722    5.4105 H         1 <0>         0.1471
     55 H16        -3.8756    4.2450    6.0793 H         1 <0>         0.1276
     56 H17        -4.2529    3.2097    4.6807 H         1 <0>         0.1088
     57 H18        -6.0544    0.6378    6.7800 H         1 <0>         0.1288
     58 H19        -5.5776    1.0163    5.1067 H         1 <0>         0.1096
     59 H20        -4.0416   -0.6541    6.0955 H         1 <0>         0.1473
     60 H21        -3.6729    0.4655    7.4288 H         1 <0>         0.2112
     61 H22        -2.9027    1.3129    7.0335 H         1 <0>         0.1915
     62 H23        -1.0211    0.4342    8.3529 H         1 <0>         0.1473
     63 H24        -0.9177    0.8421   10.7776 H         1 <0>         0.1512
     64 H25        -4.5798    3.0251   10.5749 H         1 <0>         0.1742
     65 H26        -6.7059    3.0781    4.2898 H         1 <0>         0.4176
     66 H27        -8.3139    5.0301    5.7497 H         1 <0>         0.1065
     67 H28        -9.5344    2.4568    4.6519 H         1 <0>         0.0669
     68 H29        -9.3727    2.8766    6.3741 H         1 <0>         0.0720
     69 H30       -11.6508    3.3931    5.5422 H         1 <0>         0.0717
     70 H31       -10.7931    4.8779    6.0196 H         1 <0>         0.0697
     71 H32       -11.0366    3.7996    3.1745 H         1 <0>         0.0644
     72 H33       -11.9451    5.1760    3.8441 H         1 <0>         0.0707
     73 H34        -9.9778    5.9531    2.5501 H         1 <0>         0.0743
     74 H35        -9.8161    6.3729    4.2723 H         1 <0>         0.0698
     75 H36        -7.6997    5.4366    3.3820 H         1 <0>         0.0727
     76 H37        -8.5574    3.9518    2.9046 H         1 <0>         0.0722
     77 H38        -3.2015    1.0193    4.5867 H         1 <0>         0.4258
@<TRIPOS>BOND
     1    1    2 1
     2    1   40 1
     3    1   41 1
     4    1   42 1
     5    2    7 ar
     6    2    3 ar
     7    3    4 ar
     8    3   43 1
     9    4    5 ar
    10    4   44 1
    11    5    6 ar
    12    5   45 1
    13    6    7 ar
    14    6   46 1
    15    7    8 1
    16    8   13 ar
    17    8    9 ar
    18    9   10 ar
    19    9   47 1
    20   10   11 ar
    21   10   48 1
    22   11   12 ar
    23   11   49 1
    24   12   13 ar
    25   12   14 1
    26   13   50 1
    27   14   15 1
    28   14   51 1
    29   14   52 1
    30   15   20 1
    31   15   16 1
    32   15   77 1
    33   16   17 1
    34   16   53 1
    35   16   54 1
    36   17   18 1
    37   17   55 1
    38   17   56 1
    39   18   25 1
    40   18   19 1
    41   18   21 1
    42   19   20 1
    43   19   57 1
    44   19   58 1
    45   20   59 1
    46   20   60 1
    47   21   22 2
    48   21   33 1
    49   22   23 1
    50   23   24 2
    51   23   25 am
    52   25   26 1
    53   26   31 ar
    54   26   27 ar
    55   27   28 ar
    56   27   61 1
    57   28   29 ar
    58   28   62 1
    59   29   30 ar
    60   29   63 1
    61   30   31 ar
    62   30   32 1
    63   31   64 1
    64   33   34 1
    65   33   65 1
    66   34   39 1
    67   34   35 1
    68   34   66 1
    69   35   36 1
    70   35   67 1
    71   35   68 1
    72   36   37 1
    73   36   69 1
    74   36   70 1
    75   37   38 1
    76   37   71 1
    77   37   72 1
    78   38   39 1
    79   38   73 1
    80   38   74 1
    81   39   75 1
    82   39   76 1
@<TRIPOS>MOLECULE
CHEMBL521845__1
   76    81     0     0     0
SMALL
USER_CHARGES

@<TRIPOS>ATOM
      1 C1         -0.3091    0.7802   -0.0144 C.3       1 <0>        -0.1188
      2 C2         -0.3587   -0.7234    0.0731 C.ar      1 <0>        -0.0713
      3 C3         -0.4210   -1.4814   -1.0789 C.ar      1 <0>        -0.1203
      4 C4         -0.4665   -2.8614   -1.0001 C.ar      1 <0>        -0.1135
      5 C5         -0.4496   -3.4899    0.2323 C.ar      1 <0>        -0.1245
      6 C6         -0.3871   -2.7420    1.3903 C.ar      1 <0>        -0.1024
      7 C7         -0.3361   -1.3512    1.3166 C.ar      1 <0>        -0.0514
      8 C8         -0.2636   -0.5419    2.5582 C.ar      1 <0>        -0.0432
      9 C9          0.6965    0.4603    2.6847 C.ar      1 <0>        -0.1011
     10 C10         0.7591    1.2102    3.8413 C.ar      1 <0>        -0.1177
     11 C11        -0.1290    0.9688    4.8743 C.ar      1 <0>        -0.1117
     12 C12        -1.0835   -0.0248    4.7543 C.ar      1 <0>        -0.0810
     13 C13        -1.1588   -0.7772    3.5994 C.ar      1 <0>        -0.0821
     14 C14        -2.0468   -0.2826    5.8841 C.3       1 <0>         0.0781
     15 N1         -3.2444    0.5492    5.7060 N.3       1 <0>        -0.5176
     16 C15        -2.9182    1.9754    5.8328 C.3       1 <0>        -0.0267
     17 C16        -4.1519    2.8137    5.4856 C.3       1 <0>        -0.1067
     18 C17        -5.2997    2.4312    6.4143 C.3       1 <0>         0.1366
     19 C18        -5.5822    0.9349    6.3274 C.3       1 <0>        -0.1071
     20 C19        -4.3017    0.1580    6.6471 C.3       1 <0>        -0.0230
     21 C20        -6.5401    3.2255    6.0797 C.2       1 <0>         0.4554
     22 N2         -6.8216    3.9213    7.1545 N.2       1 <0>        -0.5939
     23 C21        -5.9516    3.7034    8.1465 C.2       1 <0>         0.6615
     24 O1         -6.0160    4.2402    9.2371 O.2       1 <0>        -0.5101
     25 N3         -4.9949    2.8190    7.7979 N.am      1 <0>        -0.5777
     26 C22        -3.9343    2.3652    8.5889 C.ar      1 <0>         0.2081
     27 C23        -3.0276    1.4460    8.0763 C.ar      1 <0>        -0.2752
     28 C24        -1.9809    0.9994    8.8586 C.ar      1 <0>        -0.0891
     29 C25        -1.8339    1.4655   10.1520 C.ar      1 <0>        -0.1717
     30 C26        -2.7358    2.3816   10.6673 C.ar      1 <0>         0.1215
     31 C27        -3.7827    2.8369    9.8857 C.ar      1 <0>        -0.1850
     32 F1         -2.5901    2.8349   11.9316 F         1 <0>        -0.1344
     33 N4         -7.2197    3.2204    4.9121 N.pl3     1 <0>        -0.6467
     34 C28        -8.4118    4.0573    4.7548 C.3       1 <0>         0.1428
     35 C29        -9.6327    3.3134    5.2997 C.3       1 <0>        -0.1299
     36 C30       -10.8777    4.1875    5.1354 C.3       1 <0>        -0.1174
     37 C31       -11.0901    4.4989    3.6526 C.3       1 <0>        -0.1239
     38 C32        -9.8692    5.2428    3.1077 C.3       1 <0>        -0.1158
     39 C33        -8.6242    4.3687    3.2720 C.3       1 <0>        -0.1281
     40 H1          0.7292    1.1067   -0.0724 H         1 <0>         0.0712
     41 H2         -0.8440    1.1102   -0.9049 H         1 <0>         0.0659
     42 H3         -0.7767    1.2113    0.8709 H         1 <0>         0.0710
     43 H4         -0.4344   -0.9959   -2.0435 H         1 <0>         0.1235
     44 H5         -0.5159   -3.4506   -1.9038 H         1 <0>         0.1228
     45 H6         -0.4858   -4.5678    0.2881 H         1 <0>         0.1236
     46 H7         -0.3743   -3.2336    2.3518 H         1 <0>         0.1231
     47 H8          1.3905    0.6494    1.8791 H         1 <0>         0.1239
     48 H9          1.5030    1.9869    3.9406 H         1 <0>         0.1249
     49 H10        -0.0765    1.5581    5.7778 H         1 <0>         0.1214
     50 H11        -1.9077   -1.5496    3.5048 H         1 <0>         0.1241
     51 H12        -2.3321   -1.3346    5.8854 H         1 <0>         0.0940
     52 H13        -1.5698   -0.0344    6.8322 H         1 <0>         0.0647
     53 H14        -2.6106    2.1882    6.8566 H         1 <0>         0.1187
     54 H15        -2.1058    2.2245    5.1501 H         1 <0>         0.0961
     55 H16        -3.9200    3.8714    5.6106 H         1 <0>         0.0847
     56 H17        -4.4416    2.6240    4.4521 H         1 <0>         0.0935
     57 H18        -6.3580    0.6689    7.0454 H         1 <0>         0.0858
     58 H19        -5.9170    0.6858    5.3204 H         1 <0>         0.0943
     59 H20        -4.4928   -0.9112    6.5549 H         1 <0>         0.0922
     60 H21        -3.9841    0.3840    7.6650 H         1 <0>         0.1196
     61 H22        -3.1415    1.0805    7.0664 H         1 <0>         0.2316
     62 H23        -1.2762    0.2848    8.4596 H         1 <0>         0.1373
     63 H24        -1.0146    1.1143   10.7618 H         1 <0>         0.1356
     64 H25        -4.4837    3.5546   10.2855 H         1 <0>         0.1627
     65 H26        -6.9184    2.6626    4.1780 H         1 <0>         0.4194
     66 H27        -8.2776    4.9881    5.3060 H         1 <0>         0.1019
     67 H28        -9.7669    2.3827    4.7486 H         1 <0>         0.0661
     68 H29        -9.4814    3.0916    6.3561 H         1 <0>         0.0723
     69 H30       -11.7475    3.6575    5.5236 H         1 <0>         0.0681
     70 H31       -10.7435    5.1182    5.6866 H         1 <0>         0.0677
     71 H32       -11.2243    3.5681    3.1014 H         1 <0>         0.0636
     72 H33       -11.9771    5.1216    3.5355 H         1 <0>         0.0666
     73 H34       -10.0206    5.4646    2.0513 H         1 <0>         0.0707
     74 H35        -9.7350    6.1735    3.6588 H         1 <0>         0.0679
     75 H36        -7.7544    4.8987    2.8838 H         1 <0>         0.0725
     76 H37        -8.7584    3.4379    2.7208 H         1 <0>         0.0718
@<TRIPOS>BOND
     1    1    2 1
     2    1   40 1
     3    1   41 1
     4    1   42 1
     5    2    7 ar
     6    2    3 ar
     7    3    4 ar
     8    3   43 1
     9    4    5 ar
    10    4   44 1
    11    5    6 ar
    12    5   45 1
    13    6    7 ar
    14    6   46 1
    15    7    8 1
    16    8   13 ar
    17    8    9 ar
    18    9   10 ar
    19    9   47 1
    20   10   11 ar
    21   10   48 1
    22   11   12 ar
    23   11   49 1
    24   12   13 ar
    25   12   14 1
    26   13   50 1
    27   14   15 1
    28   14   51 1
    29   14   52 1
    30   15   20 1
    31   15   16 1
    32   16   17 1
    33   16   53 1
    34   16   54 1
    35   17   18 1
    36   17   55 1
    37   17   56 1
    38   18   25 1
    39   18   19 1
    40   18   21 1
    41   19   20 1
    42   19   57 1
    43   19   58 1
    44   20   59 1
    45   20   60 1
    46   21   22 2
    47   21   33 1
    48   22   23 1
    49   23   24 2
    50   23   25 am
    51   25   26 1
    52   26   31 ar
    53   26   27 ar
    54   27   28 ar
    55   27   61 1
    56   28   29 ar
    57   28   62 1
    58   29   30 ar
    59   29   63 1
    60   30   31 ar
    61   30   32 1
    62   31   64 1
    63   33   34 1
    64   33   65 1
    65   34   39 1
    66   34   35 1
    67   34   66 1
    68   35   36 1
    69   35   67 1
    70   35   68 1
    71   36   37 1
    72   36   69 1
    73   36   70 1
    74   37   38 1
    75   37   71 1
    76   37   72 1
    77   38   39 1
    78   38   73 1
    79   38   74 1
    80   39   75 1
    81   39   76 1
@<TRIPOS>MOLECULE
CHEMBL491660
   77    80     0     0     0
SMALL
USER_CHARGES

@<TRIPOS>ATOM
      1 C1         -6.5883   -7.6694   -1.7710 C.3       1 <0>        -0.1500
      2 C2         -5.3250   -6.8789   -2.1175 C.3       1 <0>        -0.1416
      3 C3         -5.4306   -5.4679   -1.5353 C.3       1 <0>         0.1498
      4 N1         -4.2209   -4.7110   -1.8670 N.am      1 <0>        -0.6312
      5 C4         -2.9998   -4.6550   -1.0496 C.3       1 <0>         0.1034
      6 C5         -2.0608   -3.7330   -1.8513 C.3       1 <0>         0.1043
      7 N2         -2.8524   -3.3674   -3.0354 N.am      1 <0>        -0.6260
      8 C6         -4.0494   -3.9646   -2.9660 C.2       1 <0>         0.6979
      9 O1         -4.9043   -3.8376   -3.8212 O.2       1 <0>        -0.5691
     10 C7         -2.4014   -2.4938   -4.1215 C.3       1 <0>         0.1451
     11 C8         -1.8493   -3.3462   -5.2658 C.3       1 <0>        -0.1828
     12 C9         -0.8126   -4.4733   -2.2575 C.2       1 <0>         0.5145
     13 O2          0.2175   -4.3108   -1.6383 O.2       1 <0>        -0.5177
     14 N3         -0.8410   -5.3161   -3.3089 N.am      1 <0>        -0.7098
     15 C10         0.3932   -5.9602   -3.7650 C.3       1 <0>         0.1174
     16 H1          1.2476   -5.5022   -3.2667 H         1 <0>         0.1299
     17 C11         0.3451   -7.4517   -3.4271 C.3       1 <0>        -0.1007
     18 C12         0.3609   -7.6285   -1.9306 C.ar      1 <0>        -0.0131
     19 C13         1.5652   -7.6902   -1.2553 C.ar      1 <0>        -0.1492
     20 C14         1.5810   -7.8532    0.1197 C.ar      1 <0>         0.1387
     21 C15         0.3901   -7.9538    0.8179 C.ar      1 <0>        -0.1946
     22 C16        -0.8155   -7.8913    0.1406 C.ar      1 <0>         0.1323
     23 C17        -0.8289   -7.7232   -1.2338 C.ar      1 <0>        -0.1628
     24 F1         -1.9786   -7.9893    0.8208 F         1 <0>        -0.1306
     25 F2          2.7584   -7.9144    0.7795 F         1 <0>        -0.1294
     26 C18         0.5311   -5.7843   -5.2785 C.3       1 <0>         0.1166
     27 H2          0.4761   -4.7246   -5.5277 H         1 <0>         0.1093
     28 C19         1.8781   -6.3468   -5.7368 C.3       1 <0>         0.0430
     29 H3          1.9315   -7.4065   -5.4870 H         1 <0>         0.1190
     30 C20         2.0093   -6.1777   -7.2240 C.2       1 <0>         0.4828
     31 O3          1.0491   -6.4220   -7.9235 O.2       1 <0>        -0.5105
     32 N4          3.1402   -5.7688   -7.8086 N.am      1 <0>        -0.6020
     33 C21         4.3399   -5.4147   -7.0554 C.3       1 <0>         0.0713
     34 C22         4.2621   -5.9952   -5.6422 C.3       1 <0>         0.0425
     35 N5          2.9635   -5.6296   -5.0544 N.3       1 <0>        -0.6665
     36 C23         3.1774   -5.6722   -9.2699 C.3       1 <0>         0.1508
     37 C24         2.7434   -4.2925   -9.6933 C.ar      1 <0>        -0.1106
     38 C25         1.4076   -4.0321   -9.9357 C.ar      1 <0>        -0.0926
     39 C26         1.0095   -2.7666  -10.3240 C.ar      1 <0>        -0.1226
     40 C27         1.9471   -1.7613  -10.4697 C.ar      1 <0>        -0.1145
     41 C28         3.2828   -2.0215  -10.2265 C.ar      1 <0>        -0.1247
     42 C29         3.6804   -3.2859   -9.8339 C.ar      1 <0>        -0.1083
     43 O4         -0.5263   -6.4840   -5.9376 O.3       1 <0>        -0.5267
     44 H4         -6.5131   -8.6746   -2.1857 H         1 <0>         0.0587
     45 H5         -6.6932   -7.7302   -0.6877 H         1 <0>         0.0564
     46 H6         -7.4586   -7.1666   -2.1926 H         1 <0>         0.0580
     47 H7         -4.4547   -7.3817   -1.6959 H         1 <0>         0.0614
     48 H8         -5.2201   -6.8181   -3.2007 H         1 <0>         0.0678
     49 H9         -6.3009   -4.9651   -1.9569 H         1 <0>         0.0873
     50 H10        -5.5354   -5.5288   -0.4520 H         1 <0>         0.0816
     51 H11        -3.2139   -4.2254   -0.0709 H         1 <0>         0.0950
     52 H12        -2.5633   -5.6483   -0.9453 H         1 <0>         0.0834
     53 H13        -1.8086   -2.8455   -1.2708 H         1 <0>         0.1257
     54 H14        -3.2411   -1.9003   -4.4830 H         1 <0>         0.0856
     55 H15        -1.6193   -1.8300   -3.7528 H         1 <0>         0.0803
     56 H16        -1.5596   -2.6992   -6.0938 H         1 <0>         0.0666
     57 H17        -0.9788   -3.9022   -4.9174 H         1 <0>         0.0685
     58 H18        -2.6160   -4.0445   -5.6013 H         1 <0>         0.0662
     59 H19        -1.6787   -5.4962   -3.7636 H         1 <0>         0.4082
     60 H20        -0.5671   -7.8873   -3.8348 H         1 <0>         0.0847
     61 H21         1.2115   -7.9507   -3.8611 H         1 <0>         0.0965
     62 H22         2.4943   -7.6117   -1.8003 H         1 <0>         0.1444
     63 H23         0.4014   -8.0812    1.8903 H         1 <0>         0.1473
     64 H24        -1.7694   -7.6700   -1.7620 H         1 <0>         0.1354
     65 H25         5.2171   -5.8156   -7.5632 H         1 <0>         0.0836
     66 H26         4.4228   -4.3295   -6.9966 H         1 <0>         0.0686
     67 H27         4.3517   -7.0806   -5.6874 H         1 <0>         0.0865
     68 H28         5.0678   -5.5847   -5.0335 H         1 <0>         0.1054
     69 H29         2.8168   -4.6320   -5.0911 H         1 <0>         0.3507
     70 H30         4.1927   -5.8573   -9.6206 H         1 <0>         0.0848
     71 H31         2.5036   -6.4131   -9.7003 H         1 <0>         0.0947
     72 H32         0.6750   -4.8175   -9.8219 H         1 <0>         0.1292
     73 H33        -0.0341   -2.5633  -10.5140 H         1 <0>         0.1221
     74 H34         1.6362   -0.7728  -10.7738 H         1 <0>         0.1215
     75 H35         4.0154   -1.2362  -10.3406 H         1 <0>         0.1217
     76 H36         4.7234   -3.4883   -9.6403 H         1 <0>         0.1181
     77 H37        -0.5391   -7.4346   -5.7608 H         1 <0>         0.3730
@<TRIPOS>BOND
     1    1    2 1
     2    1   44 1
     3    1   45 1
     4    1   46 1
     5    2    3 1
     6    2   47 1
     7    2   48 1
     8    3    4 1
     9    3   49 1
    10    3   50 1
    11    4    8 am
    12    4    5 1
    13    5    6 1
    14    5   51 1
    15    5   52 1
    16    6    7 1
    17    6   12 1
    18    6   53 1
    19    7    8 am
    20    7   10 1
    21    8    9 2
    22   10   11 1
    23   10   54 1
    24   10   55 1
    25   11   56 1
    26   11   57 1
    27   11   58 1
    28   12   13 2
    29   12   14 am
    30   14   15 1
    31   14   59 1
    32   15   16 1
    33   15   17 1
    34   15   26 1
    35   17   18 1
    36   17   60 1
    37   17   61 1
    38   18   23 ar
    39   18   19 ar
    40   19   20 ar
    41   19   62 1
    42   20   21 ar
    43   20   25 1
    44   21   22 ar
    45   21   63 1
    46   22   23 ar
    47   22   24 1
    48   23   64 1
    49   26   27 1
    50   26   28 1
    51   26   43 1
    52   28   29 1
    53   28   35 1
    54   28   30 1
    55   30   31 2
    56   30   32 am
    57   32   33 1
    58   32   36 1
    59   33   34 1
    60   33   65 1
    61   33   66 1
    62   34   35 1
    63   34   67 1
    64   34   68 1
    65   35   69 1
    66   36   37 1
    67   36   70 1
    68   36   71 1
    69   37   42 ar
    70   37   38 ar
    71   38   39 ar
    72   38   72 1
    73   39   40 ar
    74   39   73 1
    75   40   41 ar
    76   40   74 1
    77   41   42 ar
    78   41   75 1
    79   42   76 1
    80   43   77 1
@<TRIPOS>MOLECULE
CHEMBL491660__1
   78    81     0     0     0
SMALL
USER_CHARGES

@<TRIPOS>ATOM
      1 C1          4.8290   -7.0658   -4.8700 C.3       1 <0>        -0.1527
      2 C2          4.3731   -6.3713   -3.5852 C.3       1 <0>        -0.1384
      3 C3          4.0436   -4.9078   -3.8858 C.3       1 <0>         0.1465
      4 N1          3.6071   -4.2429   -2.6555 N.am      1 <0>        -0.6295
      5 C4          2.2194   -4.1654   -2.1751 C.3       1 <0>         0.1028
      6 C5          2.3278   -3.3688   -0.8604 C.3       1 <0>         0.1059
      7 N2          3.7650   -3.0819   -0.7397 N.am      1 <0>        -0.6295
      8 C6          4.4094   -3.6138   -1.7867 C.2       1 <0>         0.6960
      9 O1          5.6130   -3.5298   -1.9368 O.2       1 <0>        -0.5607
     10 C7          4.3931   -2.3381    0.3550 C.3       1 <0>         0.1424
     11 C8          4.9408   -3.3213    1.3915 C.3       1 <0>        -0.1831
     12 C9          1.8550   -4.2016    0.3032 C.2       1 <0>         0.5213
     13 O2          0.7380   -4.0430    0.7482 O.2       1 <0>        -0.5141
     14 N3          2.6735   -5.1226    0.8494 N.am      1 <0>        -0.7089
     15 C10         2.2491   -5.8671    2.0376 C.3       1 <0>         0.0973
     16 H1          1.4055   -5.3578    2.5033 H         1 <0>         0.1045
     17 C11         1.8298   -7.2811    1.6306 C.3       1 <0>        -0.1113
     18 C12         0.5836   -7.2120    0.7861 C.ar      1 <0>        -0.0287
     19 C13        -0.6578   -7.1524    1.3907 C.ar      1 <0>        -0.1623
     20 C14        -1.8037   -7.0894    0.6158 C.ar      1 <0>         0.1475
     21 C15        -1.7054   -7.0856   -0.7649 C.ar      1 <0>        -0.1854
     22 C16        -0.4616   -7.1448   -1.3694 C.ar      1 <0>         0.1459
     23 C17         0.6832   -7.2026   -0.5923 C.ar      1 <0>        -0.1587
     24 F1         -0.3642   -7.1412   -2.7168 F         1 <0>        -0.1222
     25 F2         -3.0170   -7.0320    1.2071 F         1 <0>        -0.1246
     26 C18         3.4095   -5.9455    3.0317 C.3       1 <0>         0.0953
     27 H2          3.7423   -4.9381    3.2819 H         1 <0>         0.1367
     28 C19         2.9449   -6.6595    4.3026 C.3       1 <0>        -0.0235
     29 H3          2.7060   -7.6967    4.0675 H         1 <0>         0.1741
     30 C20         4.0444   -6.6213    5.3256 C.2       1 <0>         0.5020
     31 O3          5.1846   -6.8177    4.9619 O.2       1 <0>        -0.4528
     32 N4          3.8169   -6.3788    6.6215 N.am      1 <0>        -0.6025
     33 C21         2.4824   -6.1040    7.1484 C.3       1 <0>         0.0790
     34 C22         1.4221   -6.5587    6.1437 C.3       1 <0>        -0.0204
     35 N5          1.7472   -5.9909    4.8263 N.4       1 <0>        -0.5067
     36 C23         4.9509   -6.3898    7.5490 C.3       1 <0>         0.1541
     37 C24         5.5373   -5.0048    7.6418 C.ar      1 <0>        -0.1277
     38 C25         6.5418   -4.6199    6.7736 C.ar      1 <0>        -0.0937
     39 C26         7.0798   -3.3494    6.8588 C.ar      1 <0>        -0.1195
     40 C27         6.6130   -2.4636    7.8119 C.ar      1 <0>        -0.1041
     41 C28         5.6079   -2.8481    8.6795 C.ar      1 <0>        -0.1213
     42 C29         5.0669   -4.1172    8.5915 C.ar      1 <0>        -0.1073
     43 O4          4.4910   -6.6725    2.4452 O.3       1 <0>        -0.4966
     44 H4          4.0315   -7.0178   -5.6116 H         1 <0>         0.0583
     45 H5          5.7165   -6.5658   -5.2580 H         1 <0>         0.0604
     46 H6          5.0637   -8.1084   -4.6559 H         1 <0>         0.0600
     47 H7          3.4856   -6.8713   -3.1972 H         1 <0>         0.0588
     48 H8          5.1706   -6.4193   -2.8436 H         1 <0>         0.0667
     49 H9          4.9311   -4.4079   -4.2738 H         1 <0>         0.0906
     50 H10         3.2462   -4.8598   -4.6273 H         1 <0>         0.0846
     51 H11         1.5948   -3.6348   -2.8937 H         1 <0>         0.0994
     52 H12         1.8237   -5.1634   -1.9863 H         1 <0>         0.0820
     53 H13         1.7570   -2.4425   -0.9262 H         1 <0>         0.1313
     54 H14         5.2097   -1.7328   -0.0386 H         1 <0>         0.0905
     55 H15         3.6537   -1.6894    0.8247 H         1 <0>         0.0813
     56 H16         5.3794   -2.7674    2.2215 H         1 <0>         0.0701
     57 H17         4.1296   -3.9484    1.7615 H         1 <0>         0.0582
     58 H18         5.7034   -3.9486    0.9298 H         1 <0>         0.0697
     59 H19         3.5436   -5.2925    0.4557 H         1 <0>         0.4200
     60 H20         2.6315   -7.7471    1.0577 H         1 <0>         0.1043
     61 H21         1.6308   -7.8725    2.5243 H         1 <0>         0.0877
     62 H22        -0.7342   -7.1554    2.4680 H         1 <0>         0.1318
     63 H23        -2.5986   -7.0368   -1.3701 H         1 <0>         0.1543
     64 H24         1.6540   -7.2444   -1.0637 H         1 <0>         0.1399
     65 H25         2.3459   -6.6413    8.0869 H         1 <0>         0.1308
     66 H26         2.3769   -5.0338    7.3268 H         1 <0>         0.1009
     67 H27         1.4187   -7.6470    6.0835 H         1 <0>         0.1465
     68 H28         0.4414   -6.2054    6.4624 H         1 <0>         0.1631
     69 H29         1.9248   -5.0018    4.9171 H         1 <0>         0.4366
     70 H30         4.6109   -6.7073    8.5347 H         1 <0>         0.1000
     71 H31         5.7103   -7.0824    7.1861 H         1 <0>         0.1059
     72 H32         6.9065   -5.3119    6.0290 H         1 <0>         0.1289
     73 H33         7.8651   -3.0489    6.1809 H         1 <0>         0.1265
     74 H34         7.0338   -1.4712    7.8789 H         1 <0>         0.1268
     75 H35         5.2434   -2.1562    9.4243 H         1 <0>         0.1264
     76 H36         4.2791   -4.4164    9.2669 H         1 <0>         0.1207
     77 H37         4.2662   -7.5796    2.1969 H         1 <0>         0.3862
     78 H38         0.9738   -6.1406    4.1959 H         1 <0>         0.4353
@<TRIPOS>BOND
     1    1    2 1
     2    1   44 1
     3    1   45 1
     4    1   46 1
     5    2    3 1
     6    2   47 1
     7    2   48 1
     8    3    4 1
     9    3   49 1
    10    3   50 1
    11    4    8 am
    12    4    5 1
    13    5    6 1
    14    5   51 1
    15    5   52 1
    16    6    7 1
    17    6   12 1
    18    6   53 1
    19    7    8 am
    20    7   10 1
    21    8    9 2
    22   10   11 1
    23   10   54 1
    24   10   55 1
    25   11   56 1
    26   11   57 1
    27   11   58 1
    28   12   13 2
    29   12   14 am
    30   14   15 1
    31   14   59 1
    32   15   16 1
    33   15   17 1
    34   15   26 1
    35   17   18 1
    36   17   60 1
    37   17   61 1
    38   18   23 ar
    39   18   19 ar
    40   19   20 ar
    41   19   62 1
    42   20   21 ar
    43   20   25 1
    44   21   22 ar
    45   21   63 1
    46   22   23 ar
    47   22   24 1
    48   23   64 1
    49   26   27 1
    50   26   28 1
    51   26   43 1
    52   28   29 1
    53   28   35 1
    54   28   30 1
    55   30   31 2
    56   30   32 am
    57   32   33 1
    58   32   36 1
    59   33   34 1
    60   33   65 1
    61   33   66 1
    62   34   35 1
    63   34   67 1
    64   34   68 1
    65   35   69 1
    66   35   78 1
    67   36   37 1
    68   36   70 1
    69   36   71 1
    70   37   42 ar
    71   37   38 ar
    72   38   39 ar
    73   38   72 1
    74   39   40 ar
    75   39   73 1
    76   40   41 ar
    77   40   74 1
    78   41   42 ar
    79   41   75 1
    80   42   76 1
    81   43   77 1
@<TRIPOS>MOLECULE
CHEMBL491660__2
   77    80     0     0     0
SMALL
USER_CHARGES

@<TRIPOS>ATOM
      1 C1         -0.0187    1.5258    0.0104 C.3       1 <0>        -0.1499
      2 C2          0.0021   -0.0041    0.0020 C.3       1 <0>        -0.1421
      3 C3         -1.4333   -0.5336    0.0129 C.3       1 <0>         0.1540
      4 N1         -1.4134   -1.9985    0.0048 N.am      1 <0>        -0.6270
      5 C4         -1.4075   -2.8439   -1.1984 C.3       1 <0>         0.1023
      6 C5         -1.3854   -4.2802   -0.6403 C.3       1 <0>         0.1042
      7 N2         -1.3813   -4.0915    0.8181 N.am      1 <0>        -0.6071
      8 C6         -1.3920   -2.7804    1.0922 C.2       1 <0>         0.7047
      9 O1         -1.3868   -2.3400    2.2255 O.2       1 <0>        -0.5749
     10 C7         -1.3622   -5.1666    1.8131 C.3       1 <0>         0.1517
     11 C8          0.0869   -5.5213    2.1529 C.3       1 <0>        -0.1708
     12 C9         -2.6163   -5.0346   -1.0726 C.2       1 <0>         0.5039
     13 O2         -3.5485   -5.1633   -0.3075 O.2       1 <0>        -0.4967
     14 N3         -2.6811   -5.5663   -2.3093 N.am      1 <0>        -0.7220
     15 C10        -3.8776   -6.2997   -2.7296 C.3       1 <0>         0.1277
     16 H1         -4.2890   -6.8422   -1.8783 H         1 <0>         0.1180
     17 C11        -4.9210   -5.3134   -3.2582 C.3       1 <0>        -0.1012
     18 C12        -5.3769   -4.4156   -2.1370 C.ar      1 <0>        -0.0040
     19 C13        -6.4528   -4.7839   -1.3515 C.ar      1 <0>        -0.1479
     20 C14        -6.8729   -3.9595   -0.3212 C.ar      1 <0>         0.1405
     21 C15        -6.2146   -2.7664   -0.0780 C.ar      1 <0>        -0.1937
     22 C16        -5.1370   -2.3988   -0.8651 C.ar      1 <0>         0.1418
     23 C17        -4.7154   -3.2272   -1.8914 C.ar      1 <0>        -0.1642
     24 F1         -4.4936   -1.2345   -0.6287 F         1 <0>        -0.1312
     25 F2         -7.9251   -4.3193    0.4459 F         1 <0>        -0.1327
     26 C18        -3.5066   -7.2906   -3.8347 C.3       1 <0>         0.1218
     27 H2         -2.7003   -7.9368   -3.4876 H         1 <0>         0.1075
     28 C19        -4.7276   -8.1429   -4.1866 C.3       1 <0>         0.0441
     29 H3         -5.5329   -7.4954   -4.5334 H         1 <0>         0.1201
     30 C20        -4.3625   -9.1117   -5.2755 C.2       1 <0>         0.4831
     31 O3         -3.6867   -8.7169   -6.2020 O.2       1 <0>        -0.5122
     32 N4         -4.7510  -10.3911   -5.2656 N.am      1 <0>        -0.6018
     33 C21        -5.5346  -10.9743   -4.1803 C.3       1 <0>         0.0712
     34 C22        -6.1958   -9.8670   -3.3574 C.3       1 <0>         0.0424
     35 N5         -5.1709   -8.8759   -2.9932 N.3       1 <0>        -0.6666
     36 C23        -4.3741  -11.2458   -6.3942 C.3       1 <0>         0.1505
     37 C24        -3.0457  -11.8978   -6.1089 C.ar      1 <0>        -0.1107
     38 C25        -1.8728  -11.2701   -6.4846 C.ar      1 <0>        -0.0931
     39 C26        -0.6544  -11.8681   -6.2229 C.ar      1 <0>        -0.1231
     40 C27        -0.6087  -13.0937   -5.5851 C.ar      1 <0>        -0.1147
     41 C28        -1.7816  -13.7210   -5.2086 C.ar      1 <0>        -0.1245
     42 C29        -3.0000  -13.1209   -5.4665 C.ar      1 <0>        -0.1082
     43 O4         -3.0767   -6.5730   -4.9933 O.3       1 <0>        -0.5296
     44 H4          1.0039    1.9031    0.0027 H         1 <0>         0.0582
     45 H5         -0.5459    1.8868   -0.8726 H         1 <0>         0.0559
     46 H6         -0.5289    1.8773    0.9072 H         1 <0>         0.0577
     47 H7          0.5123   -0.3556   -0.8948 H         1 <0>         0.0622
     48 H8          0.5293   -0.3651    0.8851 H         1 <0>         0.0670
     49 H9         -1.9435   -0.1821    0.9097 H         1 <0>         0.0850
     50 H10        -1.9605   -0.1726   -0.8702 H         1 <0>         0.0796
     51 H11        -2.3087   -2.6764   -1.7881 H         1 <0>         0.0825
     52 H12        -0.5166   -2.6521   -1.7963 H         1 <0>         0.0919
     53 H13        -0.4835   -4.8015   -0.9612 H         1 <0>         0.1105
     54 H14        -1.8764   -4.8358    2.7154 H         1 <0>         0.0851
     55 H15        -1.8660   -6.0447    1.4090 H         1 <0>         0.0797
     56 H16         0.1011   -6.3212    2.8932 H         1 <0>         0.0697
     57 H17         0.6011   -5.8521    1.2505 H         1 <0>         0.0539
     58 H18         0.5907   -4.6432    2.5570 H         1 <0>         0.0607
     59 H19        -1.9355   -5.4634   -2.9212 H         1 <0>         0.4058
     60 H20        -4.4806   -4.7091   -4.0513 H         1 <0>         0.0841
     61 H21        -5.7748   -5.8643   -3.6526 H         1 <0>         0.0930
     62 H22        -6.9662   -5.7148   -1.5414 H         1 <0>         0.1395
     63 H23        -6.5418   -2.1226    0.7251 H         1 <0>         0.1424
     64 H24        -3.8718   -2.9427   -2.5029 H         1 <0>         0.1308
     65 H25        -6.3044  -11.6230   -4.5982 H         1 <0>         0.0840
     66 H26        -4.8797  -11.5614   -3.5364 H         1 <0>         0.0689
     67 H27        -6.9756   -9.3877   -3.9493 H         1 <0>         0.0869
     68 H28        -6.6301  -10.2933   -2.4531 H         1 <0>         0.1055
     69 H29        -4.3906   -9.3151   -2.5280 H         1 <0>         0.3505
     70 H30        -5.1332  -12.0149   -6.5369 H         1 <0>         0.0852
     71 H31        -4.2954  -10.6409   -7.2976 H         1 <0>         0.0951
     72 H32        -1.9085  -10.3126   -6.9829 H         1 <0>         0.1294
     73 H33         0.2620  -11.3781   -6.5171 H         1 <0>         0.1221
     74 H34         0.3432  -13.5613   -5.3813 H         1 <0>         0.1217
     75 H35        -1.7460  -14.6787   -4.7106 H         1 <0>         0.1219
     76 H36        -3.9162  -13.6093   -5.1690 H         1 <0>         0.1184
     77 H37        -3.7454   -5.9769   -5.3573 H         1 <0>         0.3756
@<TRIPOS>BOND
     1    1    2 1
     2    1   44 1
     3    1   45 1
     4    1   46 1
     5    2    3 1
     6    2   47 1
     7    2   48 1
     8    3    4 1
     9    3   49 1
    10    3   50 1
    11    4    8 am
    12    4    5 1
    13    5    6 1
    14    5   51 1
    15    5   52 1
    16    6    7 1
    17    6   12 1
    18    6   53 1
    19    7    8 am
    20    7   10 1
    21    8    9 2
    22   10   11 1
    23   10   54 1
    24   10   55 1
    25   11   56 1
    26   11   57 1
    27   11   58 1
    28   12   13 2
    29   12   14 am
    30   14   15 1
    31   14   59 1
    32   15   16 1
    33   15   17 1
    34   15   26 1
    35   17   18 1
    36   17   60 1
    37   17   61 1
    38   18   23 ar
    39   18   19 ar
    40   19   20 ar
    41   19   62 1
    42   20   21 ar
    43   20   25 1
    44   21   22 ar
    45   21   63 1
    46   22   23 ar
    47   22   24 1
    48   23   64 1
    49   26   27 1
    50   26   28 1
    51   26   43 1
    52   28   29 1
    53   28   35 1
    54   28   30 1
    55   30   31 2
    56   30   32 am
    57   32   33 1
    58   32   36 1
    59   33   34 1
    60   33   65 1
    61   33   66 1
    62   34   35 1
    63   34   67 1
    64   34   68 1
    65   35   69 1
    66   36   37 1
    67   36   70 1
    68   36   71 1
    69   37   42 ar
    70   37   38 ar
    71   38   39 ar
    72   38   72 1
    73   39   40 ar
    74   39   73 1
    75   40   41 ar
    76   40   74 1
    77   41   42 ar
    78   41   75 1
    79   42   76 1
    80   43   77 1
@<TRIPOS>MOLECULE
CHEMBL491660__3
   78    81     0     0     0
SMALL
USER_CHARGES

@<TRIPOS>ATOM
      1 C1         -0.6858    1.2288   -0.5235 C.3       1 <0>        -0.1514
      2 C2         -0.5587   -0.2954   -0.4826 C.3       1 <0>        -0.1420
      3 C3          0.2714   -0.7702   -1.6769 C.3       1 <0>         0.1524
      4 N1          0.3931   -2.2296   -1.6378 N.am      1 <0>        -0.6269
      5 C4          1.4597   -2.9777   -0.9558 C.3       1 <0>         0.1025
      6 C5          1.1084   -4.4531   -1.2289 C.3       1 <0>         0.1062
      7 N2         -0.1188   -4.3797   -2.0357 N.am      1 <0>        -0.6096
      8 C6         -0.4528   -3.0946   -2.2127 C.2       1 <0>         0.7028
      9 O1         -1.4328   -2.7449   -2.8417 O.2       1 <0>        -0.5651
     10 C7         -0.8616   -5.5294   -2.5578 C.3       1 <0>         0.1531
     11 C8         -1.9138   -5.9636   -1.5354 C.3       1 <0>        -0.1733
     12 C9          2.2121   -5.1248   -2.0046 C.2       1 <0>         0.5087
     13 O2          2.1046   -5.2781   -3.2029 O.2       1 <0>        -0.4933
     14 N3          3.3187   -5.5551   -1.3669 N.am      1 <0>        -0.7198
     15 C10         4.3916   -6.2080   -2.1210 C.3       1 <0>         0.1063
     16 H1          3.9601   -6.7998   -2.9283 H         1 <0>         0.0939
     17 C11         5.3218   -5.1449   -2.7088 C.3       1 <0>        -0.1117
     18 C12         4.5759   -4.3408   -3.7424 C.ar      1 <0>        -0.0220
     19 C13         4.5743   -4.7465   -5.0636 C.ar      1 <0>        -0.1633
     20 C14         3.8897   -4.0082   -6.0142 C.ar      1 <0>         0.1479
     21 C15         3.2064   -2.8638   -5.6407 C.ar      1 <0>        -0.1848
     22 C16         3.2083   -2.4588   -4.3171 C.ar      1 <0>         0.1545
     23 C17         3.8893   -3.2015   -3.3673 C.ar      1 <0>        -0.1589
     24 F1          2.5418   -1.3421   -3.9512 F         1 <0>        -0.1224
     25 F2          3.8890   -4.4044   -7.3058 F         1 <0>        -0.1273
     26 C18         5.1876   -7.1224   -1.1876 C.3       1 <0>         0.1030
     27 H2          4.5145   -7.8442   -0.7251 H         1 <0>         0.1358
     28 C19         6.2574   -7.8647   -1.9911 C.3       1 <0>        -0.0225
     29 H3          6.9865   -7.1485   -2.3700 H         1 <0>         0.1743
     30 C20         6.9501   -8.8567   -1.1006 C.2       1 <0>         0.5023
     31 O3          7.2344   -8.5239    0.0305 O.2       1 <0>        -0.4548
     32 N4          7.2658  -10.0924   -1.5046 N.am      1 <0>        -0.6022
     33 C21         6.9398  -10.5920   -2.8380 C.3       1 <0>         0.0790
     34 C22         6.6231   -9.4206   -3.7698 C.3       1 <0>        -0.0204
     35 N5          5.6245   -8.5583   -3.1198 N.4       1 <0>        -0.5066
     36 C23         7.9666  -10.9796   -0.5729 C.3       1 <0>         0.1538
     37 C24         6.9593  -11.7608    0.2309 C.ar      1 <0>        -0.1277
     38 C25         6.4845  -11.2528    1.4256 C.ar      1 <0>        -0.0942
     39 C26         5.5605  -11.9694    2.1628 C.ar      1 <0>        -0.1200
     40 C27         5.1109  -13.1938    1.7051 C.ar      1 <0>        -0.1043
     41 C28         5.5850  -13.7014    0.5100 C.ar      1 <0>        -0.1211
     42 C29         6.5058  -12.9829   -0.2294 C.ar      1 <0>        -0.1071
     43 O4          5.8145   -6.3367   -0.1718 O.3       1 <0>        -0.4999
     44 H4          0.3065    1.6774   -0.4775 H         1 <0>         0.0563
     45 H5         -1.1772    1.5277   -1.4493 H         1 <0>         0.0589
     46 H6         -1.2772    1.5670    0.3274 H         1 <0>         0.0608
     47 H7         -0.0673   -0.5944    0.4433 H         1 <0>         0.0624
     48 H8         -1.5511   -0.7441   -0.5285 H         1 <0>         0.0680
     49 H9         -0.2200   -0.4712   -2.6028 H         1 <0>         0.0873
     50 H10         1.2637   -0.3215   -1.6310 H         1 <0>         0.0804
     51 H11         2.4323   -2.7309   -1.3813 H         1 <0>         0.0798
     52 H12         1.4462   -2.7730    0.1147 H         1 <0>         0.0962
     53 H13         0.9206   -4.9811   -0.2939 H         1 <0>         0.1150
     54 H14        -1.3536   -5.2514   -3.4898 H         1 <0>         0.0874
     55 H15        -0.1726   -6.3536   -2.7424 H         1 <0>         0.0750
     56 H16        -2.4665   -6.8191   -1.9238 H         1 <0>         0.0717
     57 H17        -1.4218   -6.2417   -0.6034 H         1 <0>         0.0539
     58 H18        -2.6028   -5.1394   -1.3508 H         1 <0>         0.0642
     59 H19         3.4047   -5.4325   -0.4085 H         1 <0>         0.4162
     60 H20         5.6665   -4.4839   -1.9136 H         1 <0>         0.1041
     61 H21         6.1792   -5.6301   -3.1752 H         1 <0>         0.0845
     62 H22         5.1075   -5.6394   -5.3548 H         1 <0>         0.1298
     63 H23         2.6724   -2.2872   -6.3816 H         1 <0>         0.1500
     64 H24         3.8873   -2.8881   -2.3338 H         1 <0>         0.1354
     65 H25         7.7888  -11.1497   -3.2333 H         1 <0>         0.1308
     66 H26         6.0731  -11.2500   -2.7762 H         1 <0>         0.1011
     67 H27         7.5318   -8.8499   -3.9610 H         1 <0>         0.1465
     68 H28         6.2227   -9.7997   -4.7100 H         1 <0>         0.1630
     69 H29         4.8572   -9.1207   -2.7834 H         1 <0>         0.4364
     70 H30         8.5980  -11.6692   -1.1331 H         1 <0>         0.1002
     71 H31         8.5853  -10.3850    0.0993 H         1 <0>         0.1062
     72 H32         6.8358  -10.2961    1.7832 H         1 <0>         0.1291
     73 H33         5.1901  -11.5728    3.0966 H         1 <0>         0.1265
     74 H34         4.3895  -13.7540    2.2815 H         1 <0>         0.1269
     75 H35         5.2340  -14.6582    0.1525 H         1 <0>         0.1266
     76 H36         6.8734  -13.3777   -1.1650 H         1 <0>         0.1210
     77 H37         6.4286   -5.6717   -0.5118 H         1 <0>         0.3882
     78 H38         5.2826   -7.8803   -3.7843 H         1 <0>         0.4364
@<TRIPOS>BOND
     1    1    2 1
     2    1   44 1
     3    1   45 1
     4    1   46 1
     5    2    3 1
     6    2   47 1
     7    2   48 1
     8    3    4 1
     9    3   49 1
    10    3   50 1
    11    4    8 am
    12    4    5 1
    13    5    6 1
    14    5   51 1
    15    5   52 1
    16    6    7 1
    17    6   12 1
    18    6   53 1
    19    7    8 am
    20    7   10 1
    21    8    9 2
    22   10   11 1
    23   10   54 1
    24   10   55 1
    25   11   56 1
    26   11   57 1
    27   11   58 1
    28   12   13 2
    29   12   14 am
    30   14   15 1
    31   14   59 1
    32   15   16 1
    33   15   17 1
    34   15   26 1
    35   17   18 1
    36   17   60 1
    37   17   61 1
    38   18   23 ar
    39   18   19 ar
    40   19   20 ar
    41   19   62 1
    42   20   21 ar
    43   20   25 1
    44   21   22 ar
    45   21   63 1
    46   22   23 ar
    47   22   24 1
    48   23   64 1
    49   26   27 1
    50   26   28 1
    51   26   43 1
    52   28   29 1
    53   28   35 1
    54   28   30 1
    55   30   31 2
    56   30   32 am
    57   32   33 1
    58   32   36 1
    59   33   34 1
    60   33   65 1
    61   33   66 1
    62   34   35 1
    63   34   67 1
    64   34   68 1
    65   35   69 1
    66   35   78 1
    67   36   37 1
    68   36   70 1
    69   36   71 1
    70   37   42 ar
    71   37   38 ar
    72   38   39 ar
    73   38   72 1
    74   39   40 ar
    75   39   73 1
    76   40   41 ar
    77   40   74 1
    78   41   42 ar
    79   41   75 1
    80   42   76 1
    81   43   77 1
@<TRIPOS>MOLECULE
CHEMBL404501
   77    80     0     0     0
SMALL
USER_CHARGES

@<TRIPOS>ATOM
      1 C1         -0.0188    1.5256   -0.0382 C.3       1 <0>        -0.1680
      2 C2          0.0020   -0.0042   -0.0285 C.3       1 <0>         0.1217
      3 N1         -1.3724   -0.5112   -0.0180 N.pl3     1 <0>        -0.7460
      4 C3         -1.6090   -1.8881   -0.0079 C.ar      1 <0>         0.2383
      5 C4         -0.5418   -2.7745   -0.0020 C.ar      1 <0>        -0.1947
      6 C5         -0.7792   -4.1488    0.0086 C.ar      1 <0>        -0.0652
      7 C6         -2.0898   -4.6271    0.0131 C.ar      1 <0>        -0.1518
      8 C7         -3.1516   -3.7355    0.0072 C.ar      1 <0>         0.2104
      9 C8         -2.9119   -2.3678    0.0020 C.ar      1 <0>        -0.2102
     10 N2         -4.4665   -4.2146    0.0113 N.am      1 <0>        -0.5620
     11 C9         -5.6575   -3.3639    0.1202 C.3       1 <0>         0.0940
     12 C10        -6.8369   -4.2438   -0.3503 C.3       1 <0>        -0.1323
     13 C11        -6.3058   -5.6661   -0.0570 C.3       1 <0>        -0.1544
     14 C12        -4.8012   -5.5126   -0.0897 C.2       1 <0>         0.5151
     15 O1         -4.0116   -6.4277   -0.1899 O.2       1 <0>        -0.4974
     16 C13         0.3557   -5.0969    0.0144 C.2       1 <0>         0.5640
     17 O2          0.1472   -6.2943    0.0236 O.2       1 <0>        -0.4957
     18 N3          1.6211   -4.6332    0.0095 N.am      1 <0>        -0.7254
     19 C14         2.7454   -5.5724    0.0153 C.3       1 <0>         0.1272
     20 H1          2.4852   -6.4469    0.6116 H         1 <0>         0.1092
     21 C15         3.0546   -6.0066   -1.4188 C.3       1 <0>        -0.1008
     22 C16         1.8880   -6.7847   -1.9707 C.ar      1 <0>        -0.0806
     23 C17         1.8327   -8.1562   -1.8074 C.ar      1 <0>        -0.1075
     24 C18         0.7626   -8.8700   -2.3136 C.ar      1 <0>        -0.1111
     25 C19        -0.2525   -8.2121   -2.9827 C.ar      1 <0>        -0.1072
     26 C20        -0.1977   -6.8404   -3.1452 C.ar      1 <0>        -0.1056
     27 C21         0.8703   -6.1262   -2.6353 C.ar      1 <0>        -0.1046
     28 C22         3.9757   -4.8915    0.6185 C.3       1 <0>         0.0753
     29 H2          3.7284   -4.5036    1.6066 H         1 <0>         0.1336
     30 C23         5.1130   -5.9077    0.7395 C.3       1 <0>        -0.0465
     31 N4          6.2531   -5.2871    1.4273 N.4       1 <0>        -0.5045
     32 C24         7.3451   -6.2628    1.5436 C.3       1 <0>        -0.0070
     33 C25         8.5325   -5.6164    2.2599 C.3       1 <0>        -0.1000
     34 C26         9.6527   -6.6173    2.3792 C.ar      1 <0>        -0.1102
     35 C27         9.7260   -7.4442    3.4845 C.ar      1 <0>        -0.1099
     36 C28        10.7535   -8.3624    3.5939 C.ar      1 <0>        -0.1140
     37 C29        11.7076   -8.4539    2.5978 C.ar      1 <0>        -0.1034
     38 C30        11.6338   -7.6276    1.4920 C.ar      1 <0>        -0.1141
     39 C31        10.6038   -6.7124    1.3806 C.ar      1 <0>        -0.1100
     40 O3          4.3867   -3.8150   -0.2267 O.3       1 <0>        -0.5500
     41 H3          1.0038    1.9029   -0.0460 H         1 <0>         0.0745
     42 H4         -0.5422    1.8762   -0.9278 H         1 <0>         0.0639
     43 H5         -0.5328    1.8877    0.8521 H         1 <0>         0.0635
     44 H6          0.5161   -0.3663   -0.9189 H         1 <0>         0.0589
     45 H7          0.5254   -0.3548    0.8610 H         1 <0>         0.0578
     46 H8         -2.1182    0.1091   -0.0181 H         1 <0>         0.4027
     47 H9          0.4715   -2.4008   -0.0059 H         1 <0>         0.1211
     48 H10        -2.2771   -5.6907    0.0210 H         1 <0>         0.1669
     49 H11        -3.7409   -1.6756    0.0015 H         1 <0>         0.1294
     50 H12        -5.8069   -3.0547    1.1547 H         1 <0>         0.0841
     51 H13        -5.5576   -2.4908   -0.5246 H         1 <0>         0.0879
     52 H14        -7.7352   -4.0353    0.2308 H         1 <0>         0.0996
     53 H15        -7.0233   -4.1090   -1.4158 H         1 <0>         0.0878
     54 H16        -6.6375   -6.0021    0.9254 H         1 <0>         0.1124
     55 H17        -6.6324   -6.3621   -0.8296 H         1 <0>         0.1101
     56 H18         1.7875   -3.6776    0.0022 H         1 <0>         0.4048
     57 H19         3.2279   -5.1250   -2.0360 H         1 <0>         0.0810
     58 H20         3.9454   -6.6347   -1.4242 H         1 <0>         0.0781
     59 H21         2.6258   -8.6702   -1.2846 H         1 <0>         0.1110
     60 H22         0.7197   -9.9416   -2.1866 H         1 <0>         0.1191
     61 H23        -1.0883   -8.7698   -3.3788 H         1 <0>         0.1196
     62 H24        -0.9906   -6.3265   -3.6682 H         1 <0>         0.1163
     63 H25         0.9113   -5.0541   -2.7590 H         1 <0>         0.1094
     64 H26         4.7701   -6.7705    1.3105 H         1 <0>         0.1479
     65 H27         5.4203   -6.2294   -0.2555 H         1 <0>         0.1418
     66 H28         6.5705   -4.4884    0.8988 H         1 <0>         0.4325
     67 H29         7.0021   -7.1256    2.1146 H         1 <0>         0.1345
     68 H30         7.6524   -6.5844    0.5485 H         1 <0>         0.1339
     69 H31         8.8754   -4.7535    1.6890 H         1 <0>         0.0961
     70 H32         8.2252   -5.2947    3.2550 H         1 <0>         0.0960
     71 H33         8.9806   -7.3727    4.2628 H         1 <0>         0.1243
     72 H34        10.8112   -9.0080    4.4578 H         1 <0>         0.1297
     73 H35        12.5108   -9.1708    2.6836 H         1 <0>         0.1300
     74 H36        12.3794   -7.6989    0.7139 H         1 <0>         0.1297
     75 H37        10.5441   -6.0694    0.5149 H         1 <0>         0.1242
     76 H38         4.6226   -4.0875   -1.1240 H         1 <0>         0.3916
     77 H39         5.9686   -4.9893    2.3485 H         1 <0>         0.4293
@<TRIPOS>BOND
     1    1    2 1
     2    1   41 1
     3    1   42 1
     4    1   43 1
     5    2    3 1
     6    2   44 1
     7    2   45 1
     8    3    4 1
     9    3   46 1
    10    4    9 ar
    11    4    5 ar
    12    5    6 ar
    13    5   47 1
    14    6    7 ar
    15    6   16 1
    16    7    8 ar
    17    7   48 1
    18    8    9 ar
    19    8   10 1
    20    9   49 1
    21   10   14 am
    22   10   11 1
    23   11   12 1
    24   11   50 1
    25   11   51 1
    26   12   13 1
    27   12   52 1
    28   12   53 1
    29   13   14 1
    30   13   54 1
    31   13   55 1
    32   14   15 2
    33   16   17 2
    34   16   18 am
    35   18   19 1
    36   18   56 1
    37   19   20 1
    38   19   21 1
    39   19   28 1
    40   21   22 1
    41   21   57 1
    42   21   58 1
    43   22   27 ar
    44   22   23 ar
    45   23   24 ar
    46   23   59 1
    47   24   25 ar
    48   24   60 1
    49   25   26 ar
    50   25   61 1
    51   26   27 ar
    52   26   62 1
    53   27   63 1
    54   28   29 1
    55   28   30 1
    56   28   40 1
    57   30   31 1
    58   30   64 1
    59   30   65 1
    60   31   32 1
    61   31   66 1
    62   31   77 1
    63   32   33 1
    64   32   67 1
    65   32   68 1
    66   33   34 1
    67   33   69 1
    68   33   70 1
    69   34   39 ar
    70   34   35 ar
    71   35   36 ar
    72   35   71 1
    73   36   37 ar
    74   36   72 1
    75   37   38 ar
    76   37   73 1
    77   38   39 ar
    78   38   74 1
    79   39   75 1
    80   40   76 1
@<TRIPOS>MOLECULE
CHEMBL1208905
   69    74     0     0     0
SMALL
USER_CHARGES

@<TRIPOS>ATOM
      1 C1         -0.0184    1.5028    0.0103 C.3       1 <0>        -0.0943
      2 C2          0.0021   -0.0041    0.0020 C.ar      1 <0>        -0.1894
      3 C3          0.0058   -0.6916   -1.2056 C.ar      1 <0>         0.2129
      4 C4          0.0215   -2.0802   -1.2305 C.ar      1 <0>        -0.2609
      5 C5          0.0355   -2.7977   -0.0473 C.ar      1 <0>         0.2312
      6 C6          0.0394   -2.1051    1.1775 C.ar      1 <0>        -0.3143
      7 C7          0.0229   -0.7015    1.1965 C.ar      1 <0>         0.2383
      8 O1          0.0223   -0.0342    2.3771 O.3       1 <0>        -0.4709
      9 C8          0.0708   -2.8702    2.4288 C.2       1 <0>         0.4008
     10 O2          0.2946   -2.3382    3.4966 O.2       1 <0>        -0.4301
     11 C9         -0.1916   -4.3616    2.3198 C.3       1 <0>        -0.1928
     12 C10         0.5331   -4.8592    1.0606 C.3       1 <0>         0.1522
     13 H1          1.6040   -4.6844    1.1643 H         1 <0>         0.0887
     14 O3          0.0429   -4.1511   -0.0777 O.3       1 <0>        -0.2989
     15 C11         0.2791   -6.3341    0.8839 C.ar      1 <0>        -0.1293
     16 C12        -0.8620   -6.7636    0.2299 C.ar      1 <0>        -0.0402
     17 C13        -1.1038   -8.1144    0.0629 C.ar      1 <0>        -0.2082
     18 C14        -0.2027   -9.0463    0.5507 C.ar      1 <0>         0.1669
     19 C15         0.9519   -8.6156    1.2119 C.ar      1 <0>        -0.0691
     20 C16         1.1885   -7.2516    1.3702 C.ar      1 <0>        -0.0462
     21 C17         1.9220   -9.6055    1.7374 C.ar      1 <0>        -0.1003
     22 C18         2.9785  -10.0461    0.9351 C.ar      1 <0>         0.2085
     23 C19         3.8912  -10.9731    1.4189 C.ar      1 <0>        -0.2044
     24 C20         3.7655  -11.4720    2.7034 C.ar      1 <0>         0.2227
     25 C21         2.7113  -11.0382    3.5179 C.ar      1 <0>        -0.2648
     26 C22         1.7868  -10.0969    3.0383 C.ar      1 <0>         0.1985
     27 O4          0.7783   -9.6816    3.8323 O.3       1 <0>        -0.2101
     28 C23         0.6200  -10.1338    5.0863 C.2       1 <0>         0.2087
     29 C24         1.4636  -11.0417    5.6473 C.2       1 <0>        -0.3128
     30 C25         2.5463  -11.5483    4.8901 C.2       1 <0>         0.4243
     31 O5          3.3224  -12.3640    5.3608 O.2       1 <0>        -0.4539
     32 C26        -0.5110   -9.6269    5.8862 C.ar      1 <0>        -0.0836
     33 C27        -0.6987  -10.0746    7.1969 C.ar      1 <0>        -0.0611
     34 C28        -1.7560   -9.5987    7.9402 C.ar      1 <0>        -0.1473
     35 C29        -2.6356   -8.6748    7.3888 C.ar      1 <0>         0.1361
     36 C30        -2.4526   -8.2269    6.0860 C.ar      1 <0>        -0.1493
     37 C31        -1.3947   -8.6932    5.3376 C.ar      1 <0>        -0.0591
     38 O6         -3.6767   -8.2086    8.1248 O.3       1 <0>        -0.4968
     39 O7          4.6598  -12.3785    3.1724 O.3       1 <0>        -0.4717
     40 O8          3.1125   -9.5641   -0.3265 O.3       1 <0>        -0.4786
     41 O9         -0.4399  -10.3744    0.3879 O.3       1 <0>        -0.3055
     42 C32        -1.6397  -10.7400   -0.2969 C.3       1 <0>         0.0242
     43 O10        -0.0064    0.0007   -2.3723 O.3       1 <0>        -0.3006
     44 C33        -0.0018   -0.7632   -3.5800 C.3       1 <0>         0.0209
     45 H2          1.0042    1.8801    0.0026 H         1 <0>         0.0699
     46 H3         -0.5455    1.8639   -0.8728 H         1 <0>         0.0708
     47 H4         -0.5286    1.8543    0.9071 H         1 <0>         0.0671
     48 H5          0.0223   -2.6016   -2.1763 H         1 <0>         0.1476
     49 H6         -0.8611    0.1455    2.7269 H         1 <0>         0.3990
     50 H7          0.1995   -4.8726    3.1996 H         1 <0>         0.1131
     51 H8         -1.2623   -4.5444    2.2285 H         1 <0>         0.1143
     52 H9         -1.5673   -6.0401   -0.1517 H         1 <0>         0.1333
     53 H10        -1.9965   -8.4435   -0.4483 H         1 <0>         0.1354
     54 H11         2.0802   -6.9128    1.8765 H         1 <0>         0.1327
     55 H12         4.7031  -11.3068    0.7898 H         1 <0>         0.1518
     56 H13         1.3027  -11.3804    6.6601 H         1 <0>         0.1633
     57 H14        -0.0159  -10.7929    7.6261 H         1 <0>         0.1414
     58 H15        -1.9021   -9.9444    8.9529 H         1 <0>         0.1412
     59 H16        -3.1387   -7.5091    5.6612 H         1 <0>         0.1379
     60 H17        -1.2506   -8.3413    4.3267 H         1 <0>         0.1383
     61 H18        -3.4722   -7.4138    8.6362 H         1 <0>         0.3984
     62 H19         5.4250  -11.9844    3.6129 H         1 <0>         0.4030
     63 H20         3.6569   -8.7673   -0.3874 H         1 <0>         0.4004
     64 H21        -2.5010  -10.3533    0.2477 H         1 <0>         0.0579
     65 H22        -1.6268  -10.3193   -1.3023 H         1 <0>         0.0592
     66 H23        -1.7064  -11.8262   -0.3583 H         1 <0>         0.1028
     67 H24        -0.0127   -0.0890   -4.4364 H         1 <0>         0.1068
     68 H25         0.8953   -1.3812   -3.6156 H         1 <0>         0.0624
     69 H26        -0.8845   -1.4020   -3.6093 H         1 <0>         0.0622
@<TRIPOS>BOND
     1    1    2 1
     2    1   45 1
     3    1   46 1
     4    1   47 1
     5    2    7 ar
     6    2    3 ar
     7    3    4 ar
     8    3   43 1
     9    4    5 ar
    10    4   48 1
    11    5   14 1
    12    5    6 ar
    13    6    7 ar
    14    6    9 1
    15    7    8 1
    16    8   49 1
    17    9   10 2
    18    9   11 1
    19   11   12 1
    20   11   50 1
    21   11   51 1
    22   12   13 1
    23   12   14 1
    24   12   15 1
    25   15   20 ar
    26   15   16 ar
    27   16   17 ar
    28   16   52 1
    29   17   18 ar
    30   17   53 1
    31   18   19 ar
    32   18   41 1
    33   19   20 ar
    34   19   21 1
    35   20   54 1
    36   21   26 ar
    37   21   22 ar
    38   22   23 ar
    39   22   40 1
    40   23   24 ar
    41   23   55 1
    42   24   25 ar
    43   24   39 1
    44   25   30 1
    45   25   26 ar
    46   26   27 1
    47   27   28 1
    48   28   29 2
    49   28   32 1
    50   29   30 1
    51   29   56 1
    52   30   31 2
    53   32   37 ar
    54   32   33 ar
    55   33   34 ar
    56   33   57 1
    57   34   35 ar
    58   34   58 1
    59   35   36 ar
    60   35   38 1
    61   36   37 ar
    62   36   59 1
    63   37   60 1
    64   38   61 1
    65   39   62 1
    66   40   63 1
    67   41   42 1
    68   42   64 1
    69   42   65 1
    70   42   66 1
    71   43   44 1
    72   44   67 1
    73   44   68 1
    74   44   69 1
@<TRIPOS>MOLECULE
CHEMBL502121
   83    86     0     0     0
SMALL
USER_CHARGES

@<TRIPOS>ATOM
      1 C1         -0.0187    1.5258    0.0104 C.3       1 <0>        -0.1489
      2 C2          0.0021   -0.0041    0.0020 C.3       1 <0>        -0.1392
      3 C3         -1.4333   -0.5336    0.0129 C.3       1 <0>         0.1327
      4 N1         -1.4134   -1.9985    0.0048 N.am      1 <0>        -0.6241
      5 C4         -1.4099   -2.7085   -1.2753 C.3       1 <0>         0.1360
      6 C5         -2.0938   -4.0683   -1.0979 C.3       1 <0>        -0.1416
      7 C6         -1.3868   -4.8264    0.0308 C.3       1 <0>         0.1234
      8 N2         -1.3916   -4.0014    1.2400 N.am      1 <0>        -0.6229
      9 C7         -1.3934   -2.6618    1.1706 C.2       1 <0>         0.7087
     10 O1         -1.3816   -2.0234    2.2053 O.2       1 <0>        -0.5859
     11 C8         -1.3884   -4.6520    2.5526 C.3       1 <0>         0.1320
     12 C9          0.0552   -4.8706    3.0099 C.3       1 <0>        -0.1394
     13 C10         0.0586   -5.5501    4.3807 C.3       1 <0>        -0.1491
     14 C11        -1.9922   -4.8567   -2.3781 C.2       1 <0>         0.5297
     15 O2         -1.4284   -4.3804   -3.3405 O.2       1 <0>        -0.5094
     16 N3         -2.5278   -6.0912   -2.4537 N.am      1 <0>        -0.7218
     17 C12        -2.4290   -6.8576   -3.6983 C.3       1 <0>         0.1269
     18 H1         -2.4951   -6.1793   -4.5489 H         1 <0>         0.1193
     19 C13        -1.0895   -7.5960   -3.7376 C.3       1 <0>        -0.1018
     20 C14         0.0348   -6.5941   -3.7960 C.ar      1 <0>        -0.0034
     21 C15         0.5006   -6.1496   -5.0189 C.ar      1 <0>        -0.1462
     22 C16         1.5339   -5.2294   -5.0739 C.ar      1 <0>         0.1398
     23 C17         2.1000   -4.7544   -3.9034 C.ar      1 <0>        -0.1935
     24 C18         1.6323   -5.2000   -2.6792 C.ar      1 <0>         0.1359
     25 C19         0.5954   -6.1163   -2.6266 C.ar      1 <0>        -0.1614
     26 F1          2.1838   -4.7373   -1.5360 F         1 <0>        -0.1333
     27 F2          1.9897   -4.7957   -6.2694 F         1 <0>        -0.1324
     28 C20        -3.5725   -7.8719   -3.7647 C.3       1 <0>         0.1211
     29 H2         -4.5246   -7.3543   -3.6475 H         1 <0>         0.1074
     30 C21        -3.5433   -8.5856   -5.1178 C.3       1 <0>         0.0442
     31 H3         -2.5908   -9.1027   -5.2336 H         1 <0>         0.1203
     32 C22        -4.6639   -9.5847   -5.1790 C.2       1 <0>         0.4829
     33 O3         -4.8838  -10.2716   -4.2040 O.2       1 <0>        -0.5120
     34 N4         -5.4291   -9.7479   -6.2634 N.am      1 <0>        -0.6018
     35 C23        -5.2708   -8.9474   -7.4742 C.3       1 <0>         0.0711
     36 C24        -3.8958   -8.2768   -7.4834 C.3       1 <0>         0.0425
     37 N5         -3.6955   -7.5971   -6.1938 N.3       1 <0>        -0.6666
     38 C25        -6.4724  -10.7759   -6.2354 C.3       1 <0>         0.1506
     39 C26        -7.7543  -10.1767   -5.7170 C.ar      1 <0>        -0.1108
     40 C27        -8.0234  -10.1874   -4.3611 C.ar      1 <0>        -0.0931
     41 C28        -9.1992   -9.6378   -3.8855 C.ar      1 <0>        -0.1231
     42 C29       -10.1058   -9.0771   -4.7657 C.ar      1 <0>        -0.1146
     43 C30        -9.8362   -9.0656   -6.1215 C.ar      1 <0>        -0.1245
     44 C31        -8.6584   -9.6114   -6.5966 C.ar      1 <0>        -0.1082
     45 O4         -3.4198   -8.8314   -2.7168 O.3       1 <0>        -0.5297
     46 H4          1.0039    1.9031    0.0027 H         1 <0>         0.0570
     47 H5         -0.5459    1.8868   -0.8726 H         1 <0>         0.0547
     48 H6         -0.5289    1.8773    0.9072 H         1 <0>         0.0570
     49 H7          0.5123   -0.3556   -0.8948 H         1 <0>         0.0607
     50 H8          0.5293   -0.3651    0.8851 H         1 <0>         0.0665
     51 H9         -1.9435   -0.1821    0.9097 H         1 <0>         0.0871
     52 H10        -1.9605   -0.1726   -0.8702 H         1 <0>         0.0762
     53 H11        -1.9512   -2.1227   -2.0182 H         1 <0>         0.0894
     54 H12        -0.3821   -2.8580   -1.6060 H         1 <0>         0.0735
     55 H13        -3.1420   -3.9198   -0.8385 H         1 <0>         0.1118
     56 H14        -1.9115   -5.7617    0.2259 H         1 <0>         0.0867
     57 H15        -0.3583   -5.0386   -0.2613 H         1 <0>         0.0697
     58 H16        -1.9058   -4.0187    3.2732 H         1 <0>         0.0880
     59 H17        -1.8970   -5.6135    2.4828 H         1 <0>         0.0764
     60 H18         0.5727   -5.5039    2.2893 H         1 <0>         0.0599
     61 H19         0.5638   -3.9091    3.0797 H         1 <0>         0.0672
     62 H20        -0.4589   -4.9168    5.1014 H         1 <0>         0.0574
     63 H21        -0.4500   -6.5116    4.3109 H         1 <0>         0.0547
     64 H22         1.0870   -5.7058    4.7065 H         1 <0>         0.0571
     65 H23        -2.9787   -6.4722   -1.6840 H         1 <0>         0.4055
     66 H24        -0.9851   -8.2073   -2.8412 H         1 <0>         0.0842
     67 H25        -1.0527   -8.2352   -4.6197 H         1 <0>         0.0936
     68 H26         0.0589   -6.5203   -5.9321 H         1 <0>         0.1401
     69 H27         2.9062   -4.0370   -3.9453 H         1 <0>         0.1433
     70 H28         0.2273   -6.4608   -1.6715 H         1 <0>         0.1311
     71 H29        -5.3648   -9.5917   -8.3484 H         1 <0>         0.0840
     72 H30        -6.0465   -8.1824   -7.5059 H         1 <0>         0.0689
     73 H31        -3.1220   -9.0314   -7.6244 H         1 <0>         0.0870
     74 H32        -3.8502   -7.5477   -8.2923 H         1 <0>         0.1056
     75 H33        -4.4544   -6.9620   -5.9967 H         1 <0>         0.3506
     76 H34        -6.6320  -11.1591   -7.2433 H         1 <0>         0.0852
     77 H35        -6.1619  -11.5910   -5.5818 H         1 <0>         0.0951
     78 H36        -7.3152  -10.6254   -3.6734 H         1 <0>         0.1293
     79 H37        -9.4098   -9.6467   -2.8263 H         1 <0>         0.1221
     80 H38       -11.0247   -8.6483   -4.3942 H         1 <0>         0.1217
     81 H39       -10.5446   -8.6279   -6.8092 H         1 <0>         0.1220
     82 H40        -8.4461   -9.5991   -7.6555 H         1 <0>         0.1185
     83 H41        -2.5927   -9.3307   -2.7582 H         1 <0>         0.3756
@<TRIPOS>BOND
     1    1    2 1
     2    1   46 1
     3    1   47 1
     4    1   48 1
     5    2    3 1
     6    2   49 1
     7    2   50 1
     8    3    4 1
     9    3   51 1
    10    3   52 1
    11    4    9 am
    12    4    5 1
    13    5    6 1
    14    5   53 1
    15    5   54 1
    16    6    7 1
    17    6   14 1
    18    6   55 1
    19    7    8 1
    20    7   56 1
    21    7   57 1
    22    8    9 am
    23    8   11 1
    24    9   10 2
    25   11   12 1
    26   11   58 1
    27   11   59 1
    28   12   13 1
    29   12   60 1
    30   12   61 1
    31   13   62 1
    32   13   63 1
    33   13   64 1
    34   14   15 2
    35   14   16 am
    36   16   17 1
    37   16   65 1
    38   17   18 1
    39   17   19 1
    40   17   28 1
    41   19   20 1
    42   19   66 1
    43   19   67 1
    44   20   25 ar
    45   20   21 ar
    46   21   22 ar
    47   21   68 1
    48   22   23 ar
    49   22   27 1
    50   23   24 ar
    51   23   69 1
    52   24   25 ar
    53   24   26 1
    54   25   70 1
    55   28   29 1
    56   28   30 1
    57   28   45 1
    58   30   31 1
    59   30   37 1
    60   30   32 1
    61   32   33 2
    62   32   34 am
    63   34   35 1
    64   34   38 1
    65   35   36 1
    66   35   71 1
    67   35   72 1
    68   36   37 1
    69   36   73 1
    70   36   74 1
    71   37   75 1
    72   38   39 1
    73   38   76 1
    74   38   77 1
    75   39   44 ar
    76   39   40 ar
    77   40   41 ar
    78   40   78 1
    79   41   42 ar
    80   41   79 1
    81   42   43 ar
    82   42   80 1
    83   43   44 ar
    84   43   81 1
    85   44   82 1
    86   45   83 1
@<TRIPOS>MOLECULE
CHEMBL502121__1
   84    87     0     0     0
SMALL
USER_CHARGES

@<TRIPOS>ATOM
      1 C1         -0.1655    1.9288   -0.9375 C.3       1 <0>        -0.1503
      2 C2         -0.1135    0.4073   -0.7846 C.3       1 <0>        -0.1387
      3 C3         -1.5375   -0.1457   -0.6995 C.3       1 <0>         0.1318
      4 N1         -1.4877   -1.6025   -0.5531 N.am      1 <0>        -0.6245
      5 C4         -1.4832   -2.4438   -1.7510 C.3       1 <0>         0.1365
      6 C5         -2.1371   -3.7901   -1.4223 C.3       1 <0>        -0.1421
      7 C6         -1.4028   -4.4107   -0.2290 C.3       1 <0>         0.1245
      8 N2         -1.4116   -3.4627    0.8862 N.am      1 <0>        -0.6237
      9 C7         -1.4416   -2.1382    0.6758 C.2       1 <0>         0.7068
     10 O1         -1.4319   -1.3938    1.6371 O.2       1 <0>        -0.5764
     11 C8         -1.3811   -3.9705    2.2601 C.3       1 <0>         0.1313
     12 C9          0.0715   -4.1117    2.7195 C.3       1 <0>        -0.1389
     13 C10         0.1034   -4.6421    4.1542 C.3       1 <0>        -0.1506
     14 C11        -2.0330   -4.7075   -2.6134 C.2       1 <0>         0.5359
     15 O2         -1.4895   -4.3249   -3.6278 O.2       1 <0>        -0.5057
     16 N3         -2.5440   -5.9531   -2.5513 N.am      1 <0>        -0.7200
     17 C12        -2.4428   -6.8449   -3.7091 C.3       1 <0>         0.1056
     18 H1         -2.5319   -6.2618   -4.6257 H         1 <0>         0.0954
     19 C13        -1.0890   -7.5573   -3.6874 C.3       1 <0>        -0.1123
     20 C14         0.0129   -6.5481   -3.8831 C.ar      1 <0>        -0.0214
     21 C15         0.4493   -6.2406   -5.1579 C.ar      1 <0>        -0.1611
     22 C16         1.4620   -5.3137   -5.3389 C.ar      1 <0>         0.1475
     23 C17         2.0371   -4.6948   -4.2425 C.ar      1 <0>        -0.1845
     24 C18         1.5990   -5.0032   -2.9662 C.ar      1 <0>         0.1488
     25 C19         0.5825   -5.9265   -2.7879 C.ar      1 <0>        -0.1570
     26 F1          2.1593   -4.3998   -1.8951 F         1 <0>        -0.1244
     27 F2          1.8889   -5.0140   -6.5851 F         1 <0>        -0.1271
     28 C20        -3.5660   -7.8824   -3.6535 C.3       1 <0>         0.1022
     29 H2         -4.5289   -7.3734   -3.6115 H         1 <0>         0.1358
     30 C21        -3.5088   -8.7633   -4.9031 C.3       1 <0>        -0.0222
     31 H3         -2.5881   -9.3466   -4.8922 H         1 <0>         0.1745
     32 C22        -4.6880   -9.6942   -4.9106 C.2       1 <0>         0.5020
     33 O3         -5.0176  -10.2240   -3.8706 O.2       1 <0>        -0.4547
     34 N4         -5.3896   -9.9621   -6.0178 N.am      1 <0>        -0.6022
     35 C23        -5.0852   -9.3514   -7.3095 C.3       1 <0>         0.0788
     36 C24        -3.6715   -8.7670   -7.2890 C.3       1 <0>        -0.0203
     37 N5         -3.5320   -7.9128   -6.0997 N.4       1 <0>        -0.5066
     38 C25        -6.5069  -10.9056   -5.9316 C.3       1 <0>         0.1539
     39 C26        -7.7725  -10.1567   -5.6024 C.ar      1 <0>        -0.1278
     40 C27        -8.1343   -9.9572   -4.2832 C.ar      1 <0>        -0.0942
     41 C28        -9.2952   -9.2703   -3.9812 C.ar      1 <0>        -0.1200
     42 C29       -10.0942   -8.7825   -4.9983 C.ar      1 <0>        -0.1042
     43 C30        -9.7320   -8.9812   -6.3175 C.ar      1 <0>        -0.1211
     44 C31        -8.5688   -9.6645   -6.6195 C.ar      1 <0>        -0.1071
     45 O4         -3.4059   -8.6958   -2.4896 O.3       1 <0>        -0.5000
     46 H4          0.8490    2.3227   -0.9980 H         1 <0>         0.0589
     47 H5         -0.7093    2.1841   -1.8469 H         1 <0>         0.0548
     48 H6         -0.6732    2.3633   -0.0764 H         1 <0>         0.0589
     49 H7          0.3942   -0.0273   -1.6457 H         1 <0>         0.0592
     50 H8          0.4304    0.1519    0.1249 H         1 <0>         0.0674
     51 H9         -2.0452    0.2889    0.1616 H         1 <0>         0.0897
     52 H10        -2.0813    0.1097   -1.6090 H         1 <0>         0.0767
     53 H11        -2.0443   -1.9505   -2.5447 H         1 <0>         0.0895
     54 H12        -0.4562   -2.6077   -2.0772 H         1 <0>         0.0725
     55 H13        -3.1854   -3.6352   -1.1667 H         1 <0>         0.1171
     56 H14        -1.9061   -5.3301    0.0704 H         1 <0>         0.0862
     57 H15        -0.3734   -4.6328   -0.5102 H         1 <0>         0.0683
     58 H16        -1.9037   -3.2746    2.9164 H         1 <0>         0.0906
     59 H17        -1.8706   -4.9437    2.2987 H         1 <0>         0.0766
     60 H18         0.5941   -4.8075    2.0632 H         1 <0>         0.0582
     61 H19         0.5610   -3.1385    2.6809 H         1 <0>         0.0683
     62 H20         1.1382   -4.7426    4.4815 H         1 <0>         0.0590
     63 H21        -0.4193   -3.9462    4.8105 H         1 <0>         0.0593
     64 H22        -0.3861   -5.6152    4.1928 H         1 <0>         0.0546
     65 H23        -2.9788   -6.2591   -1.7399 H         1 <0>         0.4161
     66 H24        -0.9571   -8.0578   -2.7281 H         1 <0>         0.1041
     67 H25        -1.0533   -8.2943   -4.4896 H         1 <0>         0.0852
     68 H26         0.0004   -6.7236   -6.0132 H         1 <0>         0.1305
     69 H27         2.8273   -3.9720   -4.3827 H         1 <0>         0.1509
     70 H28         0.2375   -6.1641   -1.7924 H         1 <0>         0.1360
     71 H29        -5.1534  -10.1068   -8.0922 H         1 <0>         0.1307
     72 H30        -5.8027   -8.5562   -7.5120 H         1 <0>         0.1011
     73 H31        -2.9423   -9.5762   -7.2471 H         1 <0>         0.1465
     74 H32        -3.5089   -8.1722   -8.1878 H         1 <0>         0.1632
     75 H33        -4.3121   -7.2752   -6.0460 H         1 <0>         0.4365
     76 H34        -6.6253  -11.4169   -6.8870 H         1 <0>         0.1003
     77 H35        -6.3044  -11.6381   -5.1502 H         1 <0>         0.1062
     78 H36        -7.5101  -10.3383   -3.4885 H         1 <0>         0.1290
     79 H37        -9.5782   -9.1150   -2.9506 H         1 <0>         0.1264
     80 H38       -11.0016   -8.2464   -4.7624 H         1 <0>         0.1270
     81 H39       -10.3564   -8.6004   -7.1122 H         1 <0>         0.1267
     82 H40        -8.2839   -9.8165   -7.6501 H         1 <0>         0.1210
     83 H41        -2.5690   -9.1794   -2.4597 H         1 <0>         0.3882
     84 H42        -2.6705   -7.3910   -6.1601 H         1 <0>         0.4365
@<TRIPOS>BOND
     1    1    2 1
     2    1   46 1
     3    1   47 1
     4    1   48 1
     5    2    3 1
     6    2   49 1
     7    2   50 1
     8    3    4 1
     9    3   51 1
    10    3   52 1
    11    4    9 am
    12    4    5 1
    13    5    6 1
    14    5   53 1
    15    5   54 1
    16    6    7 1
    17    6   14 1
    18    6   55 1
    19    7    8 1
    20    7   56 1
    21    7   57 1
    22    8    9 am
    23    8   11 1
    24    9   10 2
    25   11   12 1
    26   11   58 1
    27   11   59 1
    28   12   13 1
    29   12   60 1
    30   12   61 1
    31   13   62 1
    32   13   63 1
    33   13   64 1
    34   14   15 2
    35   14   16 am
    36   16   17 1
    37   16   65 1
    38   17   18 1
    39   17   19 1
    40   17   28 1
    41   19   20 1
    42   19   66 1
    43   19   67 1
    44   20   25 ar
    45   20   21 ar
    46   21   22 ar
    47   21   68 1
    48   22   23 ar
    49   22   27 1
    50   23   24 ar
    51   23   69 1
    52   24   25 ar
    53   24   26 1
    54   25   70 1
    55   28   29 1
    56   28   30 1
    57   28   45 1
    58   30   31 1
    59   30   37 1
    60   30   32 1
    61   32   33 2
    62   32   34 am
    63   34   35 1
    64   34   38 1
    65   35   36 1
    66   35   71 1
    67   35   72 1
    68   36   37 1
    69   36   73 1
    70   36   74 1
    71   37   75 1
    72   37   84 1
    73   38   39 1
    74   38   76 1
    75   38   77 1
    76   39   44 ar
    77   39   40 ar
    78   40   41 ar
    79   40   78 1
    80   41   42 ar
    81   41   79 1
    82   42   43 ar
    83   42   80 1
    84   43   44 ar
    85   43   81 1
    86   44   82 1
    87   45   83 1
@<TRIPOS>MOLECULE
CHEMBL400654
   78    81     0     0     0
SMALL
USER_CHARGES

@<TRIPOS>ATOM
      1 C1         -0.0187    1.5258    0.0104 C.3       1 <0>        -0.1556
      2 C2          0.0021   -0.0041    0.0020 C.3       1 <0>         0.0557
      3 O1          0.6709   -0.4649   -1.1737 O.3       1 <0>        -0.3103
      4 C3          0.7768   -1.8102   -1.3362 C.ar      1 <0>         0.1310
      5 C4          1.4191   -2.3235   -2.4524 C.ar      1 <0>        -0.1121
      6 C5          1.5300   -3.7017   -2.6230 C.ar      1 <0>         0.0135
      7 C6          0.9953   -4.5648   -1.6720 C.ar      1 <0>        -0.0712
      8 C7          0.3498   -4.0471   -0.5505 C.ar      1 <0>        -0.0981
      9 C8          0.2475   -2.6650   -0.3832 C.ar      1 <0>        -0.1816
     10 C9         -0.2203   -4.9601    0.4634 C.2       1 <0>         0.5658
     11 O2         -0.1263   -6.1634    0.3191 O.2       1 <0>        -0.4991
     12 N1         -0.8443   -4.4581    1.5475 N.am      1 <0>        -0.7257
     13 C10        -1.4091   -5.3627    2.5519 C.3       1 <0>         0.1271
     14 H1         -1.7985   -6.2541    2.0601 H         1 <0>         0.1106
     15 C11        -0.3187   -5.7645    3.5471 C.3       1 <0>        -0.1014
     16 C12         0.7388   -6.5688    2.8360 C.ar      1 <0>        -0.0797
     17 C13         0.6228   -7.9438    2.7540 C.ar      1 <0>        -0.1064
     18 C14         1.5929   -8.6816    2.1017 C.ar      1 <0>        -0.1108
     19 C15         2.6787   -8.0444    1.5311 C.ar      1 <0>        -0.1099
     20 C16         2.7943   -6.6693    1.6123 C.ar      1 <0>        -0.1086
     21 C17         1.8220   -5.9311    2.2609 C.ar      1 <0>        -0.1055
     22 C18        -2.5429   -4.6544    3.2960 C.3       1 <0>         0.0744
     23 H2         -3.2771   -4.2899    2.5775 H         1 <0>         0.1342
     24 C19        -3.2144   -5.6374    4.2571 C.3       1 <0>        -0.0476
     25 N2         -4.3770   -4.9934    4.8830 N.4       1 <0>        -0.5052
     26 C20        -5.0217   -5.9372    5.8059 C.3       1 <0>         0.0466
     27 C21        -6.2143   -5.2765    6.4480 C.ar      1 <0>        -0.1685
     28 C22        -6.0629   -4.5748    7.6296 C.ar      1 <0>        -0.0603
     29 C23        -7.1567   -3.9689    8.2185 C.ar      1 <0>        -0.1108
     30 C24        -8.4021   -4.0641    7.6257 C.ar      1 <0>        -0.0358
     31 C25        -8.5533   -4.7648    6.4440 C.ar      1 <0>        -0.1744
     32 C26        -7.4583   -5.3673    5.8527 C.ar      1 <0>        -0.0436
     33 C27        -9.9109   -4.8689    5.7981 C.3       1 <0>         0.5061
     34 F1        -10.8504   -4.1817    6.5741 F         1 <0>        -0.1689
     35 F2         -9.8626   -4.3068    4.5179 F         1 <0>        -0.1727
     36 F3        -10.2799   -6.2150    5.7028 F         1 <0>        -0.1701
     37 O3         -2.0123   -3.5527    4.0353 O.3       1 <0>        -0.5496
     38 C28         2.2179   -4.2491   -3.8194 C.2       1 <0>        -0.2064
     39 C29         3.5201   -4.0856   -4.0739 C.2       1 <0>        -0.0102
     40 C30         3.8929   -4.7672   -5.3662 C.3       1 <0>        -0.1057
     41 C31         2.5939   -5.3982   -5.8960 C.3       1 <0>        -0.1787
     42 C32         1.5516   -5.0385   -4.8594 C.2       1 <0>         0.3988
     43 O4          0.3784   -5.3450   -4.8859 O.2       1 <0>        -0.4410
     44 C33         4.4796   -3.3267   -3.1939 C.3       1 <0>        -0.1245
     45 H3          1.0039    1.9031    0.0027 H         1 <0>         0.0696
     46 H4         -0.5459    1.8868   -0.8726 H         1 <0>         0.0693
     47 H5         -0.5289    1.8773    0.9072 H         1 <0>         0.0801
     48 H6          0.5293   -0.3651    0.8851 H         1 <0>         0.0613
     49 H7         -1.0205   -0.3814    0.0098 H         1 <0>         0.0602
     50 H8          1.8341   -1.6538   -3.1911 H         1 <0>         0.1387
     51 H9          1.0798   -5.6335   -1.8026 H         1 <0>         0.1367
     52 H10        -0.2482   -2.2620    0.4876 H         1 <0>         0.1279
     53 H11        -0.9193   -3.4979    1.6626 H         1 <0>         0.4043
     54 H12         0.1319   -4.8683    3.9737 H         1 <0>         0.0816
     55 H13        -0.7575   -6.3651    4.3439 H         1 <0>         0.0797
     56 H14        -0.2256   -8.4417    3.1999 H         1 <0>         0.1121
     57 H15         1.5026   -9.7560    2.0383 H         1 <0>         0.1199
     58 H16         3.4370   -8.6209    1.0221 H         1 <0>         0.1202
     59 H17         3.6429   -6.1714    1.1668 H         1 <0>         0.1177
     60 H18         1.9104   -4.8564    2.3211 H         1 <0>         0.1097
     61 H19        -3.5407   -6.5192    3.7057 H         1 <0>         0.1499
     62 H20        -2.5040   -5.9337    5.0288 H         1 <0>         0.1437
     63 H21        -4.0749   -4.1771    5.3935 H         1 <0>         0.4326
     64 H22        -5.3479   -6.8190    5.2544 H         1 <0>         0.1435
     65 H23        -4.3112   -6.2335    6.5776 H         1 <0>         0.1446
     66 H24        -5.0900   -4.5005    8.0926 H         1 <0>         0.1436
     67 H25        -7.0385   -3.4214    9.1419 H         1 <0>         0.1512
     68 H26        -9.2569   -3.5912    8.0863 H         1 <0>         0.1531
     69 H27        -7.5758   -5.9116    4.9273 H         1 <0>         0.1442
     70 H28        -1.3511   -3.8035    4.6948 H         1 <0>         0.3916
     71 H29         4.2748   -4.0372   -6.0799 H         1 <0>         0.1010
     72 H30         4.6389   -5.5403   -5.1822 H         1 <0>         0.1001
     73 H31         2.3331   -4.9753   -6.8661 H         1 <0>         0.1115
     74 H32         2.6978   -6.4809   -5.9669 H         1 <0>         0.1103
     75 H33         4.9203   -4.0072   -2.4653 H         1 <0>         0.0871
     76 H34         5.2682   -2.8910   -3.8074 H         1 <0>         0.0817
     77 H35         3.9445   -2.5331   -2.6725 H         1 <0>         0.0780
     78 H36        -5.0346   -4.7191    4.1687 H         1 <0>         0.4297
@<TRIPOS>BOND
     1    1    2 1
     2    1   45 1
     3    1   46 1
     4    1   47 1
     5    2    3 1
     6    2   48 1
     7    2   49 1
     8    3    4 1
     9    4    9 ar
    10    4    5 ar
    11    5    6 ar
    12    5   50 1
    13    6    7 ar
    14    6   38 1
    15    7    8 ar
    16    7   51 1
    17    8    9 ar
    18    8   10 1
    19    9   52 1
    20   10   11 2
    21   10   12 am
    22   12   13 1
    23   12   53 1
    24   13   14 1
    25   13   15 1
    26   13   22 1
    27   15   16 1
    28   15   54 1
    29   15   55 1
    30   16   21 ar
    31   16   17 ar
    32   17   18 ar
    33   17   56 1
    34   18   19 ar
    35   18   57 1
    36   19   20 ar
    37   19   58 1
    38   20   21 ar
    39   20   59 1
    40   21   60 1
    41   22   23 1
    42   22   24 1
    43   22   37 1
    44   24   25 1
    45   24   61 1
    46   24   62 1
    47   25   26 1
    48   25   63 1
    49   25   78 1
    50   26   27 1
    51   26   64 1
    52   26   65 1
    53   27   32 ar
    54   27   28 ar
    55   28   29 ar
    56   28   66 1
    57   29   30 ar
    58   29   67 1
    59   30   31 ar
    60   30   68 1
    61   31   32 ar
    62   31   33 1
    63   32   69 1
    64   33   34 1
    65   33   35 1
    66   33   36 1
    67   37   70 1
    68   38   42 1
    69   38   39 2
    70   39   40 1
    71   39   44 1
    72   40   41 1
    73   40   71 1
    74   40   72 1
    75   41   42 1
    76   41   73 1
    77   41   74 1
    78   42   43 2
    79   44   75 1
    80   44   76 1
    81   44   77 1
@<TRIPOS>MOLECULE
CHEMBL383772
   75    78     0     0     0
SMALL
USER_CHARGES

@<TRIPOS>ATOM
      1 C1         -1.2855    0.4983   -0.4839 C.3       1 <0>         0.0749
      2 N1          0.0021   -0.0041    0.0020 N.pl3     1 <0>        -0.9563
      3 C2          0.0441   -0.8879    1.0838 C.ar      1 <0>         0.1516
      4 C3          0.7604   -0.5529    2.2233 C.ar      1 <0>        -0.0512
      5 C4          0.8038   -1.4350    3.3073 C.ar      1 <0>        -0.1417
      6 C5          0.1249   -2.6532    3.2403 C.ar      1 <0>        -0.0464
      7 C6         -0.5926   -2.9842    2.0938 C.ar      1 <0>        -0.1393
      8 C7         -0.6356   -2.0958    1.0174 C.ar      1 <0>        -0.0327
      9 C8         -1.3132   -4.2734    2.0184 C.2       1 <0>         0.5668
     10 O1         -1.9394   -4.5619    1.0174 O.2       1 <0>        -0.5272
     11 N2         -1.2756   -5.1284    3.0596 N.am      1 <0>        -0.7195
     12 C9         -1.9895   -6.4055    2.9848 C.3       1 <0>         0.1230
     13 H1         -1.9501   -6.7845    1.9636 H         1 <0>         0.1160
     14 C10        -1.3312   -7.4137    3.9288 C.3       1 <0>        -0.0898
     15 C11         0.0671   -7.7100    3.4514 C.ar      1 <0>        -0.0972
     16 C12         0.2885   -8.7424    2.5591 C.ar      1 <0>        -0.1118
     17 C13         1.5712   -9.0142    2.1212 C.ar      1 <0>        -0.1125
     18 C14         2.6323   -8.2535    2.5752 C.ar      1 <0>        -0.1111
     19 C15         2.4108   -7.2206    3.4668 C.ar      1 <0>        -0.1134
     20 C16         1.1276   -6.9460    3.9014 C.ar      1 <0>        -0.1143
     21 C17        -3.4486   -6.1990    3.3962 C.3       1 <0>         0.0715
     22 H2         -3.4880   -5.8199    4.4174 H         1 <0>         0.0841
     23 C18        -4.1068   -5.1907    2.4523 C.3       1 <0>         0.0049
     24 N3         -5.4699   -4.9019    2.9176 N.4       1 <0>        -0.4774
     25 C19        -6.1019   -3.9338    2.0113 C.3       1 <0>        -0.0827
     26 C20        -6.4818   -2.5690    2.5889 C.3       1 <0>        -0.1549
     27 C21        -7.5722   -3.5902    2.2585 C.3       1 <0>        -0.1530
     28 O2         -4.1449   -7.4447    3.3234 O.3       1 <0>        -0.5619
     29 C22         1.5643   -1.0801    4.5168 C.2       1 <0>         0.3993
     30 O3          2.1538   -0.0221    4.5736 O.2       1 <0>        -0.4304
     31 C23         1.6102   -2.0319    5.6843 C.3       1 <0>        -0.1368
     32 C24         0.4145   -1.7734    6.6241 C.3       1 <0>        -0.1075
     33 C25         0.9935   -1.9910    8.0441 C.3       1 <0>        -0.1244
     34 C26         2.4157   -1.3883    7.9294 C.3       1 <0>        -0.1260
     35 C27         2.8826   -1.7871    6.5142 C.3       1 <0>        -0.1213
     36 S1          1.4077    0.4754   -0.7306 S.o2      1 <0>         2.5960
     37 O4          2.3614   -0.5134   -0.3674 O.2       1 <0>        -0.9368
     38 O5          1.0562    0.6771   -2.0926 O.2       1 <0>        -0.9371
     39 C28         1.8227    2.0599    0.0489 C.3       1 <0>        -0.6710
     40 H3         -1.5388    1.4183    0.0429 H         1 <0>         0.0676
     41 H4         -1.2172    0.6988   -1.5531 H         1 <0>         0.0966
     42 H5         -2.0585   -0.2486   -0.3030 H         1 <0>         0.0801
     43 H6          1.2852    0.3897    2.2731 H         1 <0>         0.1420
     44 H7          0.1565   -3.3372    4.0755 H         1 <0>         0.1377
     45 H8         -1.1959   -2.3509    0.1300 H         1 <0>         0.1503
     46 H9         -0.7759   -4.8981    3.8584 H         1 <0>         0.4070
     47 H10        -1.2909   -6.9966    4.9351 H         1 <0>         0.0869
     48 H11        -1.9140   -8.3347    3.9404 H         1 <0>         0.0957
     49 H12        -0.5405   -9.3367    2.2044 H         1 <0>         0.1223
     50 H13         1.7443   -9.8212    1.4246 H         1 <0>         0.1261
     51 H14         3.6345   -8.4663    2.2336 H         1 <0>         0.1261
     52 H15         3.2399   -6.6264    3.8218 H         1 <0>         0.1256
     53 H16         0.9540   -6.1366    4.5951 H         1 <0>         0.1155
     54 H17        -3.5240   -4.2697    2.4406 H         1 <0>         0.1417
     55 H18        -4.1472   -5.6079    1.4460 H         1 <0>         0.1483
     56 H19        -6.0094   -5.7544    2.9284 H         1 <0>         0.4344
     57 H20        -5.7594   -3.9653    0.9769 H         1 <0>         0.1780
     58 H21        -6.2629   -2.3893    3.6415 H         1 <0>         0.1196
     59 H22        -6.3893   -1.7021    1.9347 H         1 <0>         0.1332
     60 H23        -8.1969   -3.3952    1.3868 H         1 <0>         0.1344
     61 H24        -8.0705   -4.0824    3.0937 H         1 <0>         0.1211
     62 H25        -3.7813   -8.1327    3.8973 H         1 <0>         0.4052
     63 H26         1.5896   -3.0616    5.3273 H         1 <0>         0.0972
     64 H27         0.0549   -0.7506    6.5114 H         1 <0>         0.0714
     65 H28        -0.3873   -2.4847    6.4259 H         1 <0>         0.0701
     66 H29         0.4050   -1.4537    8.7878 H         1 <0>         0.0723
     67 H30         1.0423   -3.0535    8.2827 H         1 <0>         0.0715
     68 H31         2.3793   -0.3034    8.0276 H         1 <0>         0.0697
     69 H32         3.0744   -1.8186    8.6838 H         1 <0>         0.0717
     70 H33         3.4791   -2.6982    6.5607 H         1 <0>         0.0730
     71 H34         3.4669   -0.9799    6.0726 H         1 <0>         0.0816
     72 H35         1.9563    1.9135    1.1208 H         1 <0>         0.1299
     73 H36         2.7459    2.4464   -0.3828 H         1 <0>         0.1390
     74 H37         1.0154    2.7718   -0.1228 H         1 <0>         0.1339
     75 H38        -5.4325   -4.5157    3.8491 H         1 <0>         0.4204
@<TRIPOS>BOND
     1    1    2 1
     2    1   40 1
     3    1   41 1
     4    1   42 1
     5    2    3 1
     6    2   36 1
     7    3    8 ar
     8    3    4 ar
     9    4    5 ar
    10    4   43 1
    11    5    6 ar
    12    5   29 1
    13    6    7 ar
    14    6   44 1
    15    7    8 ar
    16    7    9 1
    17    8   45 1
    18    9   10 2
    19    9   11 am
    20   11   12 1
    21   11   46 1
    22   12   13 1
    23   12   14 1
    24   12   21 1
    25   14   15 1
    26   14   47 1
    27   14   48 1
    28   15   20 ar
    29   15   16 ar
    30   16   17 ar
    31   16   49 1
    32   17   18 ar
    33   17   50 1
    34   18   19 ar
    35   18   51 1
    36   19   20 ar
    37   19   52 1
    38   20   53 1
    39   21   22 1
    40   21   23 1
    41   21   28 1
    42   23   24 1
    43   23   54 1
    44   23   55 1
    45   24   25 1
    46   24   56 1
    47   24   75 1
    48   25   27 1
    49   25   26 1
    50   25   57 1
    51   26   27 1
    52   26   58 1
    53   26   59 1
    54   27   60 1
    55   27   61 1
    56   28   62 1
    57   29   30 2
    58   29   31 1
    59   31   35 1
    60   31   32 1
    61   31   63 1
    62   32   33 1
    63   32   64 1
    64   32   65 1
    65   33   34 1
    66   33   66 1
    67   33   67 1
    68   34   35 1
    69   34   68 1
    70   34   69 1
    71   35   70 1
    72   35   71 1
    73   36   37 2
    74   36   38 2
    75   36   39 1
    76   39   72 1
    77   39   73 1
    78   39   74 1
@<TRIPOS>MOLECULE
CHEMBL42908
   83    84     0     0     0
SMALL
USER_CHARGES

@<TRIPOS>ATOM
      1 C1          3.6234   -5.6122   -0.0116 C.3       1 <0>        -0.1497
      2 C2          2.7257   -4.8913    0.9960 C.3       1 <0>        -0.1395
      3 C3          1.7471   -3.9830    0.2488 C.3       1 <0>         0.1136
      4 N1          0.8875   -3.2928    1.2137 N.am      1 <0>        -0.6063
      5 C4          1.3390   -2.0458    1.8360 C.3       1 <0>         0.0976
      6 C5          1.2431   -0.9052    0.8207 C.3       1 <0>        -0.1469
      7 C6          1.5765    0.4198    1.5091 C.3       1 <0>        -0.1526
      8 C7         -0.3186   -3.8050    1.5288 C.2       1 <0>         0.5595
      9 O1         -0.6635   -4.8756    1.0680 O.2       1 <0>        -0.5238
     10 C8         -1.2223   -3.0647    2.4352 C.ar      1 <0>        -0.1324
     11 C9         -1.4327   -1.6961    2.2496 C.ar      1 <0>        -0.0725
     12 C10        -2.2761   -1.0033    3.0949 C.ar      1 <0>        -0.1288
     13 C11        -2.9172   -1.6571    4.1288 C.ar      1 <0>        -0.0682
     14 C12        -2.7154   -3.0250    4.3258 C.ar      1 <0>        -0.1376
     15 C13        -1.8703   -3.7314    3.4725 C.ar      1 <0>        -0.0073
     16 C14        -3.4018   -3.7231    5.4338 C.2       1 <0>         0.5608
     17 O2         -3.2252   -4.9136    5.6041 O.2       1 <0>        -0.5082
     18 N2         -4.2233   -3.0395    6.2550 N.am      1 <0>        -0.7246
     19 C15        -4.9034   -3.7312    7.3528 C.3       1 <0>         0.1234
     20 H1         -5.1597   -4.7437    7.0408 H         1 <0>         0.1054
     21 C16        -3.9773   -3.7914    8.5692 C.3       1 <0>        -0.0899
     22 C17        -2.7766   -4.6424    8.2447 C.ar      1 <0>        -0.0077
     23 C18        -2.8093   -6.0030    8.4851 C.ar      1 <0>        -0.1510
     24 C19        -1.7065   -6.7859    8.1878 C.ar      1 <0>         0.1392
     25 C20        -0.5712   -6.2053    7.6493 C.ar      1 <0>        -0.1948
     26 C21        -0.5397   -4.8426    7.4086 C.ar      1 <0>         0.1358
     27 C22        -1.6456   -4.0625    7.7019 C.ar      1 <0>        -0.1570
     28 F1          0.5677   -4.2746    6.8831 F         1 <0>        -0.1348
     29 F2         -1.7384   -8.1157    8.4237 F         1 <0>        -0.1327
     30 C23        -6.1799   -2.9723    7.7207 C.3       1 <0>         0.0970
     31 H2         -6.6859   -3.4870    8.5375 H         1 <0>         0.1313
     32 C24        -7.1060   -2.9122    6.5043 C.3       1 <0>        -0.1309
     33 C25        -8.4375   -2.2756    6.9080 C.3       1 <0>        -0.1094
     34 H3         -8.2492   -1.3243    7.4058 H         1 <0>         0.1061
     35 C26        -9.2886   -2.0380    5.6591 C.3       1 <0>        -0.1455
     36 C27        -9.1707   -3.1977    7.8477 C.2       1 <0>         0.5175
     37 O3         -8.6770   -4.2596    8.1634 O.2       1 <0>        -0.5383
     38 N3        -10.3751   -2.8425    8.3372 N.am      1 <0>        -0.7286
     39 C28       -11.0879   -3.7390    9.2507 C.3       1 <0>         0.1214
     40 C29       -12.4194   -3.1024    9.6544 C.3       1 <0>        -0.1086
     41 C30       -13.3198   -2.9793    8.4236 C.3       1 <0>        -0.1499
     42 C31       -13.1065   -3.9790   10.7033 C.3       1 <0>        -0.1468
     43 O4         -5.8439   -1.6450    8.1297 O.3       1 <0>        -0.5514
     44 H4          4.1808   -4.8773   -0.5924 H         1 <0>         0.0553
     45 H5          4.3205   -6.2592    0.5207 H         1 <0>         0.0583
     46 H6          3.0083   -6.2136   -0.6810 H         1 <0>         0.0574
     47 H7          2.1682   -5.6262    1.5768 H         1 <0>         0.0666
     48 H8          3.3408   -4.2899    1.6654 H         1 <0>         0.0627
     49 H9          2.3045   -3.2482   -0.3320 H         1 <0>         0.0782
     50 H10         1.1320   -4.5844   -0.4206 H         1 <0>         0.0874
     51 H11         0.7090   -1.8202    2.6964 H         1 <0>         0.0896
     52 H12         2.3733   -2.1560    2.1619 H         1 <0>         0.0794
     53 H13         1.9494   -1.0808    0.0092 H         1 <0>         0.0703
     54 H14         0.2311   -0.8611    0.4183 H         1 <0>         0.0686
     55 H15         0.8703    0.5954    2.3206 H         1 <0>         0.0578
     56 H16         2.5886    0.3757    1.9115 H         1 <0>         0.0589
     57 H17         1.5082    1.2324    0.7858 H         1 <0>         0.0607
     58 H18        -0.9341   -1.1788    1.4432 H         1 <0>         0.1420
     59 H19        -2.4350    0.0547    2.9473 H         1 <0>         0.1374
     60 H20        -3.5757   -1.1093    4.7865 H         1 <0>         0.1286
     61 H21        -1.7146   -4.7902    3.6176 H         1 <0>         0.1423
     62 H22        -4.3642   -2.0894    6.1191 H         1 <0>         0.3930
     63 H23        -3.6498   -2.7842    8.8267 H         1 <0>         0.0888
     64 H24        -4.5134   -4.2261    9.4128 H         1 <0>         0.0922
     65 H25        -3.6952   -6.4558    8.9052 H         1 <0>         0.1384
     66 H26         0.2896   -6.8150    7.4175 H         1 <0>         0.1431
     67 H27        -1.6229   -2.9999    7.5100 H         1 <0>         0.1310
     68 H28        -6.6396   -2.3136    5.7218 H         1 <0>         0.0738
     69 H29        -7.2837   -3.9213    6.1327 H         1 <0>         0.0857
     70 H30       -10.1983   -1.5048    5.9353 H         1 <0>         0.0610
     71 H31        -8.7229   -1.4439    4.9414 H         1 <0>         0.0693
     72 H32        -9.5512   -2.9962    5.2106 H         1 <0>         0.0613
     73 H33       -10.7700   -1.9933    8.0847 H         1 <0>         0.3999
     74 H34       -11.2762   -4.6903    8.7530 H         1 <0>         0.0684
     75 H35       -10.4815   -3.9082   10.1405 H         1 <0>         0.0684
     76 H36       -12.2369   -2.1121   10.0717 H         1 <0>         0.0766
     77 H37       -13.5022   -3.9696    8.0063 H         1 <0>         0.0580
     78 H38       -14.2683   -2.5257    8.7112 H         1 <0>         0.0594
     79 H39       -12.8302   -2.3547    7.6763 H         1 <0>         0.0533
     80 H40       -12.4651   -4.0668   11.5802 H         1 <0>         0.0587
     81 H41       -14.0551   -3.5255   10.9909 H         1 <0>         0.0614
     82 H42       -13.2890   -4.9694   10.2861 H         1 <0>         0.0588
     83 H43        -5.3898   -1.1273    7.4507 H         1 <0>         0.3652
@<TRIPOS>BOND
     1    1    2 1
     2    1   44 1
     3    1   45 1
     4    1   46 1
     5    2    3 1
     6    2   47 1
     7    2   48 1
     8    3    4 1
     9    3   49 1
    10    3   50 1
    11    4    5 1
    12    4    8 am
    13    5    6 1
    14    5   51 1
    15    5   52 1
    16    6    7 1
    17    6   53 1
    18    6   54 1
    19    7   55 1
    20    7   56 1
    21    7   57 1
    22    8    9 2
    23    8   10 1
    24   10   15 ar
    25   10   11 ar
    26   11   12 ar
    27   11   58 1
    28   12   13 ar
    29   12   59 1
    30   13   14 ar
    31   13   60 1
    32   14   15 ar
    33   14   16 1
    34   15   61 1
    35   16   17 2
    36   16   18 am
    37   18   19 1
    38   18   62 1
    39   19   20 1
    40   19   21 1
    41   19   30 1
    42   21   22 1
    43   21   63 1
    44   21   64 1
    45   22   27 ar
    46   22   23 ar
    47   23   24 ar
    48   23   65 1
    49   24   25 ar
    50   24   29 1
    51   25   26 ar
    52   25   66 1
    53   26   27 ar
    54   26   28 1
    55   27   67 1
    56   30   31 1
    57   30   32 1
    58   30   43 1
    59   32   33 1
    60   32   68 1
    61   32   69 1
    62   33   34 1
    63   33   35 1
    64   33   36 1
    65   35   70 1
    66   35   71 1
    67   35   72 1
    68   36   37 2
    69   36   38 am
    70   38   39 1
    71   38   73 1
    72   39   40 1
    73   39   74 1
    74   39   75 1
    75   40   41 1
    76   40   42 1
    77   40   76 1
    78   41   77 1
    79   41   78 1
    80   41   79 1
    81   42   80 1
    82   42   81 1
    83   42   82 1
    84   43   83 1
@<TRIPOS>MOLECULE
CHEMBL244347
   80    84     0     0     0
SMALL
USER_CHARGES

@<TRIPOS>ATOM
      1 C1          1.8185    3.6632   -2.3713 C.3       1 <0>         0.0728
      2 N1          1.9025    2.4776   -1.5149 N.am      1 <0>        -0.6098
      3 C2          2.4346    2.5927   -0.1548 C.3       1 <0>         0.1379
      4 C3          1.5733    3.5689    0.6489 C.3       1 <0>        -0.1255
      5 C4          2.1290    3.6891    2.0694 C.3       1 <0>        -0.1186
      6 C5          3.5678    4.2064    2.0120 C.3       1 <0>        -0.1232
      7 C6          4.4291    3.2301    1.2083 C.3       1 <0>        -0.1190
      8 C7          3.8734    3.1100   -0.2121 C.3       1 <0>        -0.1252
      9 C8          1.4903    1.2810   -1.9783 C.2       1 <0>         0.5113
     10 O1          1.5599    0.2995   -1.2693 O.2       1 <0>        -0.5316
     11 C9          0.9429    1.1627   -3.3773 C.3       1 <0>        -0.1443
     12 C10         0.5507   -0.2908   -3.6503 C.3       1 <0>        -0.1253
     13 C11        -0.0050   -0.4110   -5.0707 C.3       1 <0>         0.1461
     14 H1          0.7226   -0.0166   -5.7801 H         1 <0>         0.1012
     15 C12        -0.2807   -1.8822   -5.3877 C.3       1 <0>        -0.0947
     16 C13        -1.1912   -2.4742   -4.3101 C.3       1 <0>        -0.1317
     17 C14        -1.4669   -3.9453   -4.6271 C.3       1 <0>        -0.1172
     18 C15        -0.1458   -4.7165   -4.6586 C.3       1 <0>        -0.1244
     19 C16         0.7648   -4.1245   -5.7362 C.3       1 <0>        -0.1193
     20 C17         1.0404   -2.6533   -5.4192 C.3       1 <0>        -0.1153
     21 N2         -1.2510    0.3526   -5.1738 N.pl3     1 <0>        -0.5842
     22 C18        -2.2639    0.2852   -4.1089 C.3       1 <0>         0.1406
     23 C19        -3.6208    0.2106   -4.7663 C.ar      1 <0>        -0.0827
     24 C20        -4.6820   -0.3826   -4.1203 C.ar      1 <0>        -0.1557
     25 C21        -5.9244   -0.4407   -4.7385 C.ar      1 <0>         0.1506
     26 C22        -6.0980    0.0981   -6.0060 C.ar      1 <0>        -0.1115
     27 C23        -5.0386    0.6932   -6.6588 C.ar      1 <0>        -0.0714
     28 C24        -3.7879    0.7536   -6.0423 C.ar      1 <0>         0.0662
     29 N3         -2.7283    1.3393   -6.6827 N.pl3     1 <0>        -0.5690
     30 C25        -1.4967    1.1525   -6.2660 C.cat     1 <0>         0.7249
     31 N4         -0.4505    1.7519   -6.9230 N.pl3     1 <0>        -0.8043
     32 O2         -6.9726   -1.0270   -4.1010 O.3       1 <0>        -0.2436
     33 C26        -6.7909   -1.4367   -2.8183 C.ar      1 <0>         0.0637
     34 C27        -6.8013   -0.5107   -1.7849 C.ar      1 <0>        -0.1301
     35 C28        -6.6168   -0.9299   -0.4817 C.ar      1 <0>        -0.1036
     36 C29        -6.4219   -2.2709   -0.2065 C.ar      1 <0>        -0.1073
     37 C30        -6.4107   -3.1956   -1.2345 C.ar      1 <0>        -0.1024
     38 C31        -6.6004   -2.7825   -2.5389 C.ar      1 <0>        -0.1165
     39 H2          2.7437    3.7685   -2.9379 H         1 <0>         0.0606
     40 H3          0.9808    3.5551   -3.0603 H         1 <0>         0.0656
     41 H4          1.6684    4.5482   -1.7530 H         1 <0>         0.0787
     42 H5          2.4191    1.6143    0.3254 H         1 <0>         0.1035
     43 H6          1.5888    4.5473    0.1687 H         1 <0>         0.0653
     44 H7          0.5483    3.2004    0.6897 H         1 <0>         0.0634
     45 H8          1.5154    4.3846    2.6419 H         1 <0>         0.0685
     46 H9          2.1135    2.7107    2.5495 H         1 <0>         0.0661
     47 H10         3.5832    5.1848    1.5319 H         1 <0>         0.0630
     48 H11         3.9637    4.2920    3.0240 H         1 <0>         0.0677
     49 H12         5.4541    3.5987    1.1675 H         1 <0>         0.0690
     50 H13         4.4136    2.2517    1.6885 H         1 <0>         0.0660
     51 H14         4.4870    2.4145   -0.7847 H         1 <0>         0.0646
     52 H15         3.8888    4.0884   -0.6923 H         1 <0>         0.0651
     53 H16         0.0654    1.8011   -3.4794 H         1 <0>         0.0883
     54 H17         1.7040    1.4741   -4.0928 H         1 <0>         0.0955
     55 H18         1.4283   -0.9292   -3.5482 H         1 <0>         0.1095
     56 H19        -0.2103   -0.6023   -2.9348 H         1 <0>         0.0920
     57 H20        -0.7695   -1.9591   -6.3589 H         1 <0>         0.0791
     58 H21        -0.7024   -2.3972   -3.3389 H         1 <0>         0.0766
     59 H22        -2.1324   -1.9248   -4.2877 H         1 <0>         0.0662
     60 H23        -2.1156   -4.3671   -3.8594 H         1 <0>         0.0670
     61 H24        -1.9557   -4.0223   -5.5983 H         1 <0>         0.0607
     62 H25         0.3430   -4.6395   -3.6874 H         1 <0>         0.0661
     63 H26        -0.3422   -5.7646   -4.8844 H         1 <0>         0.0667
     64 H27         1.7059   -4.6739   -5.7586 H         1 <0>         0.0701
     65 H28         0.2759   -4.2015   -6.7074 H         1 <0>         0.0621
     66 H29         1.6891   -2.2316   -6.1869 H         1 <0>         0.0665
     67 H30         1.5293   -2.5763   -4.4480 H         1 <0>         0.0752
     68 H31        -2.0999   -0.6033   -3.4991 H         1 <0>         0.1379
     69 H32        -2.2042    1.1775   -3.4857 H         1 <0>         0.1031
     70 H33        -4.5487   -0.8019   -3.1340 H         1 <0>         0.1490
     71 H34        -7.0659    0.0509   -6.4828 H         1 <0>         0.1552
     72 H35        -5.1766    1.1112   -7.6451 H         1 <0>         0.1515
     73 H36         0.4506    1.6744   -6.5725 H         1 <0>         0.4381
     74 H37        -0.6126    2.2529   -7.7377 H         1 <0>         0.4366
     75 H38        -6.9531    0.5369   -1.9993 H         1 <0>         0.1315
     76 H39        -6.6244   -0.2096    0.3230 H         1 <0>         0.1347
     77 H40        -6.2778   -2.5965    0.8131 H         1 <0>         0.1339
     78 H41        -6.2579   -4.2424   -1.0169 H         1 <0>         0.1363
     79 H42        -6.5960   -3.5057   -3.3409 H         1 <0>         0.1344
     80 H43        -2.8898    1.9044   -7.4544 H         1 <0>         0.4413
@<TRIPOS>BOND
     1    1    2 1
     2    1   39 1
     3    1   40 1
     4    1   41 1
     5    2    3 1
     6    2    9 am
     7    3    8 1
     8    3    4 1
     9    3   42 1
    10    4    5 1
    11    4   43 1
    12    4   44 1
    13    5    6 1
    14    5   45 1
    15    5   46 1
    16    6    7 1
    17    6   47 1
    18    6   48 1
    19    7    8 1
    20    7   49 1
    21    7   50 1
    22    8   51 1
    23    8   52 1
    24    9   10 2
    25    9   11 1
    26   11   12 1
    27   11   53 1
    28   11   54 1
    29   12   13 1
    30   12   55 1
    31   12   56 1
    32   13   14 1
    33   13   15 1
    34   13   21 1
    35   15   20 1
    36   15   16 1
    37   15   57 1
    38   16   17 1
    39   16   58 1
    40   16   59 1
    41   17   18 1
    42   17   60 1
    43   17   61 1
    44   18   19 1
    45   18   62 1
    46   18   63 1
    47   19   20 1
    48   19   64 1
    49   19   65 1
    50   20   66 1
    51   20   67 1
    52   21   30 1
    53   21   22 1
    54   22   23 1
    55   22   68 1
    56   22   69 1
    57   23   28 ar
    58   23   24 ar
    59   24   25 ar
    60   24   70 1
    61   25   26 ar
    62   25   32 1
    63   26   27 ar
    64   26   71 1
    65   27   28 ar
    66   27   72 1
    67   28   29 1
    68   29   30 2
    69   29   80 1
    70   30   31 1
    71   31   73 1
    72   31   74 1
    73   32   33 1
    74   33   38 ar
    75   33   34 ar
    76   34   35 ar
    77   34   75 1
    78   35   36 ar
    79   35   76 1
    80   36   37 ar
    81   36   77 1
    82   37   38 ar
    83   37   78 1
    84   38   79 1
@<TRIPOS>MOLECULE
CHEMBL517179
   77    81     0     0     0
SMALL
USER_CHARGES

@<TRIPOS>ATOM
      1 C1         -0.0187    1.5258    0.0104 C.3       1 <0>        -0.1590
      2 C2          0.0021   -0.0041    0.0020 C.3       1 <0>         0.1852
      3 H1         -1.0205   -0.3814    0.0098 H         1 <0>         0.1008
      4 C3          0.7309   -0.5033    1.2229 C.ar      1 <0>        -0.0993
      5 C4          2.1131   -0.5138    1.2466 C.ar      1 <0>        -0.1172
      6 C5          2.7816   -0.9717    2.3665 C.ar      1 <0>        -0.1139
      7 C6          2.0681   -1.4187    3.4629 C.ar      1 <0>        -0.1144
      8 C7          0.6860   -1.4074    3.4395 C.ar      1 <0>        -0.1126
      9 C8          0.0174   -0.9454    2.3212 C.ar      1 <0>        -0.1058
     10 N1          0.6878   -0.4765   -1.2033 N.am      1 <0>        -0.7158
     11 C9          0.0062   -0.6081   -2.3585 C.2       1 <0>         0.5628
     12 O1         -1.1774   -0.3349   -2.4004 O.2       1 <0>        -0.5289
     13 C10         0.6983   -1.0850   -3.5752 C.ar      1 <0>        -0.1062
     14 C11        -0.0030   -1.2164   -4.7720 C.ar      1 <0>        -0.0558
     15 C12         0.6567   -1.6673   -5.9110 C.ar      1 <0>        -0.1269
     16 C13         2.0186   -1.9864   -5.8566 C.ar      1 <0>        -0.0717
     17 C14         2.7123   -1.8518   -4.6684 C.ar      1 <0>         0.1245
     18 C15         2.0559   -1.3991   -3.5295 C.ar      1 <0>        -0.0829
     19 O2          4.0375   -2.1401   -4.5768 O.3       1 <0>        -0.3072
     20 C16         4.6220   -2.9332   -5.6105 C.3       1 <0>         0.0557
     21 C17         4.2140   -2.3394   -6.9649 C.3       1 <0>        -0.1658
     22 C18         2.6966   -2.4764   -7.1113 C.3       1 <0>        -0.0838
     23 C19        -0.0834   -1.8103   -7.1832 C.2       1 <0>         0.5680
     24 O3          0.4909   -2.2040   -8.1795 O.2       1 <0>        -0.5316
     25 N2         -1.3948   -1.5041   -7.2381 N.am      1 <0>        -0.7183
     26 C20        -2.1280   -1.6457   -8.4985 C.3       1 <0>         0.1271
     27 H2         -1.7430   -2.5046   -9.0482 H         1 <0>         0.1088
     28 C21        -3.6147   -1.8540   -8.2030 C.3       1 <0>        -0.0834
     29 C22        -3.8049   -3.1634   -7.4818 C.ar      1 <0>        -0.0964
     30 C23        -4.0168   -4.3245   -8.2014 C.ar      1 <0>        -0.1136
     31 C24        -4.1913   -5.5256   -7.5398 C.ar      1 <0>        -0.1147
     32 C25        -4.1534   -5.5658   -6.1586 C.ar      1 <0>        -0.1139
     33 C26        -3.9405   -4.4049   -5.4390 C.ar      1 <0>        -0.1134
     34 C27        -3.7618   -3.2044   -6.1007 C.ar      1 <0>        -0.1129
     35 C28        -1.9474   -0.3799   -9.3386 C.3       1 <0>         0.0731
     36 H3         -2.3324    0.4790   -8.7889 H         1 <0>         0.1264
     37 C29        -0.4607   -0.1716   -9.6341 C.3       1 <0>        -0.0396
     38 N3         -0.2753    1.1048  -10.3372 N.4       1 <0>        -0.4759
     39 C30         1.1521    1.3047  -10.6208 C.3       1 <0>        -0.0833
     40 C31         1.8445    2.4959   -9.9555 C.3       1 <0>        -0.1548
     41 C32         1.5422    2.5266  -11.4550 C.3       1 <0>        -0.1529
     42 O4         -2.6626   -0.5181  -10.5680 O.3       1 <0>        -0.5452
     43 H4          1.0039    1.9031    0.0027 H         1 <0>         0.0606
     44 H5         -0.5459    1.8868   -0.8726 H         1 <0>         0.0650
     45 H6         -0.5289    1.8773    0.9072 H         1 <0>         0.0728
     46 H7          2.6705   -0.1645    0.3901 H         1 <0>         0.1178
     47 H8          3.8614   -0.9806    2.3848 H         1 <0>         0.1256
     48 H9          2.5905   -1.7771    4.3376 H         1 <0>         0.1258
     49 H10         0.1286   -1.7569    4.2959 H         1 <0>         0.1272
     50 H11        -1.0624   -0.9331    2.3044 H         1 <0>         0.1258
     51 H12         1.6324   -0.6946   -1.1699 H         1 <0>         0.4009
     52 H13        -1.0536   -0.9697   -4.8152 H         1 <0>         0.1406
     53 H14         2.6001   -1.2939   -2.6026 H         1 <0>         0.1416
     54 H15         5.7077   -2.9183   -5.5152 H         1 <0>         0.1159
     55 H16         4.2604   -3.9587   -5.5354 H         1 <0>         0.0704
     56 H17         4.4935   -1.2866   -7.0038 H         1 <0>         0.0771
     57 H18         4.7113   -2.8821   -7.7689 H         1 <0>         0.0910
     58 H19         2.4411   -3.5231   -7.2765 H         1 <0>         0.0889
     59 H20         2.3592   -1.8830   -7.9611 H         1 <0>         0.1091
     60 H21        -1.8531   -1.1898   -6.4430 H         1 <0>         0.4105
     61 H22        -3.9785   -1.0386   -7.5778 H         1 <0>         0.0848
     62 H23        -4.1723   -1.8706   -9.1394 H         1 <0>         0.1037
     63 H24        -4.0465   -4.2931   -9.2806 H         1 <0>         0.1211
     64 H25        -4.3576   -6.4326   -8.1021 H         1 <0>         0.1248
     65 H26        -4.2904   -6.5041   -5.6417 H         1 <0>         0.1248
     66 H27        -3.9112   -4.4362   -4.3598 H         1 <0>         0.1247
     67 H28        -3.5917   -2.2981   -5.5386 H         1 <0>         0.1176
     68 H29         0.0970   -0.1550   -8.6977 H         1 <0>         0.1398
     69 H30        -0.0968   -0.9870  -10.2593 H         1 <0>         0.1442
     70 H31        -0.7915    1.0894  -11.2039 H         1 <0>         0.4309
     71 H32         1.7362    0.3947  -10.7575 H         1 <0>         0.1768
     72 H33         1.2409    3.1312   -9.3073 H         1 <0>         0.1203
     73 H34         2.8844    2.3696   -9.6542 H         1 <0>         0.1330
     74 H35         2.3832    2.4204  -12.1403 H         1 <0>         0.1342
     75 H36         0.7397    3.1820  -11.7933 H         1 <0>         0.1215
     76 H37        -2.3722   -1.2642  -11.1103 H         1 <0>         0.3927
     77 H38        -0.6121    1.8596   -9.7584 H         1 <0>         0.4231
@<TRIPOS>BOND
     1    1    2 1
     2    1   43 1
     3    1   44 1
     4    1   45 1
     5    2    3 1
     6    2    4 1
     7    2   10 1
     8    4    9 ar
     9    4    5 ar
    10    5    6 ar
    11    5   46 1
    12    6    7 ar
    13    6   47 1
    14    7    8 ar
    15    7   48 1
    16    8    9 ar
    17    8   49 1
    18    9   50 1
    19   10   11 am
    20   10   51 1
    21   11   12 2
    22   11   13 1
    23   13   18 ar
    24   13   14 ar
    25   14   15 ar
    26   14   52 1
    27   15   16 ar
    28   15   23 1
    29   16   22 1
    30   16   17 ar
    31   17   18 ar
    32   17   19 1
    33   18   53 1
    34   19   20 1
    35   20   21 1
    36   20   54 1
    37   20   55 1
    38   21   22 1
    39   21   56 1
    40   21   57 1
    41   22   58 1
    42   22   59 1
    43   23   24 2
    44   23   25 am
    45   25   26 1
    46   25   60 1
    47   26   27 1
    48   26   28 1
    49   26   35 1
    50   28   29 1
    51   28   61 1
    52   28   62 1
    53   29   34 ar
    54   29   30 ar
    55   30   31 ar
    56   30   63 1
    57   31   32 ar
    58   31   64 1
    59   32   33 ar
    60   32   65 1
    61   33   34 ar
    62   33   66 1
    63   34   67 1
    64   35   36 1
    65   35   37 1
    66   35   42 1
    67   37   38 1
    68   37   68 1
    69   37   69 1
    70   38   39 1
    71   38   70 1
    72   38   77 1
    73   39   41 1
    74   39   40 1
    75   39   71 1
    76   40   41 1
    77   40   72 1
    78   40   73 1
    79   41   74 1
    80   41   75 1
    81   42   76 1
@<TRIPOS>MOLECULE
CHEMBL397924
   79    83     0     0     0
SMALL
USER_CHARGES

@<TRIPOS>ATOM
      1 C1         -0.4814    2.5548    0.3541 C.3       1 <0>        -0.0619
      2 N1         -0.2510    1.2538    0.9961 N.4       1 <0>        -0.3838
      3 C2         -1.4714    0.4409    0.9073 C.3       1 <0>        -0.0190
      4 C3         -1.7660    0.1218   -0.5598 C.3       1 <0>        -0.1805
      5 C4         -3.0370   -0.7248   -0.6523 C.3       1 <0>         0.1522
      6 C5         -3.5138   -0.7719   -2.1053 C.3       1 <0>        -0.1119
      7 C6         -3.6294    0.6530   -2.6506 C.3       1 <0>        -0.1669
      8 C7         -4.1062    0.6059   -4.1036 C.3       1 <0>        -0.1191
      9 C8         -5.4732   -0.0779   -4.1699 C.3       1 <0>        -0.1235
     10 C9         -5.3577   -1.5028   -3.6246 C.3       1 <0>        -0.1247
     11 C10        -4.8809   -1.4557   -2.1716 C.3       1 <0>        -0.1116
     12 N2         -4.0816   -0.1305    0.1854 N.pl3     1 <0>        -0.5909
     13 C11        -4.6274   -0.8631    1.3387 C.3       1 <0>         0.1541
     14 C12        -6.1219   -0.6505    1.3555 C.ar      1 <0>        -0.0824
     15 C13        -6.9567   -1.5807    1.9328 C.ar      1 <0>        -0.1581
     16 C14        -8.3292   -1.3686    1.9417 C.ar      1 <0>         0.1647
     17 C15        -8.8607   -0.2206    1.3699 C.ar      1 <0>        -0.1105
     18 C16        -8.0298    0.7149    0.7894 C.ar      1 <0>        -0.0588
     19 C17        -6.6499    0.5061    0.7771 C.ar      1 <0>         0.0409
     20 N3         -5.8158    1.4269    0.2006 N.pl3     1 <0>        -0.5390
     21 C18        -4.5694    1.1271   -0.0860 C.cat     1 <0>         0.7289
     22 N4         -3.7514    2.0676   -0.6620 N.pl3     1 <0>        -0.8582
     23 O1         -9.1541   -2.2873    2.5112 O.3       1 <0>        -0.2378
     24 C19        -8.5874   -3.3406    3.1558 C.ar      1 <0>         0.0588
     25 C20        -8.0008   -3.1600    4.4003 C.ar      1 <0>        -0.1324
     26 C21        -7.4257   -4.2327    5.0537 C.ar      1 <0>        -0.1036
     27 C22        -7.4343   -5.4855    4.4686 C.ar      1 <0>        -0.1052
     28 C23        -8.0177   -5.6681    3.2284 C.ar      1 <0>        -0.1007
     29 C24        -8.5992   -4.6000    2.5733 C.ar      1 <0>        -0.1139
     30 C25         0.0987    1.4595    2.4080 C.3       1 <0>         0.0250
     31 C26         1.3698    2.3061    2.5004 C.3       1 <0>        -0.1412
     32 C27         1.7339    2.5204    3.9709 C.3       1 <0>        -0.1183
     33 C28         1.9739    1.1653    4.6396 C.3       1 <0>        -0.1339
     34 C29         0.7028    0.3187    4.5471 C.3       1 <0>        -0.1175
     35 C30         0.3387    0.1045    3.0766 C.3       1 <0>        -0.1401
     36 H1          0.4241    3.1579    0.4200 H         1 <0>         0.1376
     37 H2         -0.7408    2.4021   -0.6935 H         1 <0>         0.1190
     38 H3         -1.2985    3.0697    0.8594 H         1 <0>         0.1208
     39 H4         -1.3302   -0.4879    1.4599 H         1 <0>         0.1444
     40 H5         -2.3081    0.9940    1.3339 H         1 <0>         0.1238
     41 H6         -1.9071    1.0507   -1.1124 H         1 <0>         0.0918
     42 H7         -0.9292   -0.4313   -0.9864 H         1 <0>         0.1267
     43 H8         -2.8257   -1.7366   -0.3063 H         1 <0>         0.1393
     44 H9         -2.7973   -1.3333   -2.7048 H         1 <0>         0.1140
     45 H10        -4.3459    1.2145   -2.0511 H         1 <0>         0.0817
     46 H11        -2.6554    1.1402   -2.6034 H         1 <0>         0.0707
     47 H12        -4.1885    1.6210   -4.4921 H         1 <0>         0.0733
     48 H13        -3.3896    0.0445   -4.7031 H         1 <0>         0.0751
     49 H14        -6.1898    0.4836   -3.5704 H         1 <0>         0.0574
     50 H15        -5.8129   -0.1114   -5.2051 H         1 <0>         0.0762
     51 H16        -6.3316   -1.9899   -3.6718 H         1 <0>         0.0732
     52 H17        -4.6412   -2.0642   -4.2241 H         1 <0>         0.0720
     53 H18        -4.7986   -2.4708   -1.7831 H         1 <0>         0.0741
     54 H19        -5.5975   -0.8942   -1.5721 H         1 <0>         0.0584
     55 H20        -4.4069   -1.9259    1.2388 H         1 <0>         0.1306
     56 H21        -4.1897   -0.4796    2.2604 H         1 <0>         0.1061
     57 H22        -6.5448   -2.4741    2.3784 H         1 <0>         0.1527
     58 H23        -9.9286   -0.0596    1.3793 H         1 <0>         0.1604
     59 H24        -8.4461    1.6068    0.3450 H         1 <0>         0.1547
     60 H25        -3.0897    1.7984   -1.3182 H         1 <0>         0.4402
     61 H26        -3.8352    3.0013   -0.4127 H         1 <0>         0.4286
     62 H27        -7.9935   -2.1816    4.8576 H         1 <0>         0.1312
     63 H28        -6.9687   -4.0926    6.0221 H         1 <0>         0.1358
     64 H29        -6.9841   -6.3228    4.9811 H         1 <0>         0.1358
     65 H30        -8.0227   -6.6476    2.7735 H         1 <0>         0.1387
     66 H31        -9.0587   -4.7441    1.6066 H         1 <0>         0.1362
     67 H32        -0.7184    1.9744    2.9133 H         1 <0>         0.1352
     68 H33         2.1868    1.7912    1.9951 H         1 <0>         0.0896
     69 H34         1.1988    3.2715    2.0241 H         1 <0>         0.0884
     70 H35         2.6395    3.1235    4.0368 H         1 <0>         0.0889
     71 H36         0.9168    3.0353    4.4763 H         1 <0>         0.0740
     72 H37         2.7910    0.6504    4.1343 H         1 <0>         0.0727
     73 H38         2.2333    1.3180    5.6872 H         1 <0>         0.0831
     74 H39         0.8738   -0.6466    5.0235 H         1 <0>         0.0877
     75 H40        -0.1142    0.8336    5.0525 H         1 <0>         0.0735
     76 H41        -0.5669   -0.4987    3.0107 H         1 <0>         0.0828
     77 H42         1.1557   -0.4105    2.5713 H         1 <0>         0.0901
     78 H43        -6.1494    2.3162    0.0039 H         1 <0>         0.4461
     79 H44         0.5054    0.7771    0.5283 H         1 <0>         0.4280
@<TRIPOS>BOND
     1    1    2 1
     2    1   36 1
     3    1   37 1
     4    1   38 1
     5    2    3 1
     6    2   30 1
     7    2   79 1
     8    3    4 1
     9    3   39 1
    10    3   40 1
    11    4    5 1
    12    4   41 1
    13    4   42 1
    14    5    6 1
    15    5   12 1
    16    5   43 1
    17    6   11 1
    18    6    7 1
    19    6   44 1
    20    7    8 1
    21    7   45 1
    22    7   46 1
    23    8    9 1
    24    8   47 1
    25    8   48 1
    26    9   10 1
    27    9   49 1
    28    9   50 1
    29   10   11 1
    30   10   51 1
    31   10   52 1
    32   11   53 1
    33   11   54 1
    34   12   21 1
    35   12   13 1
    36   13   14 1
    37   13   55 1
    38   13   56 1
    39   14   19 ar
    40   14   15 ar
    41   15   16 ar
    42   15   57 1
    43   16   17 ar
    44   16   23 1
    45   17   18 ar
    46   17   58 1
    47   18   19 ar
    48   18   59 1
    49   19   20 1
    50   20   21 2
    51   20   78 1
    52   21   22 1
    53   22   60 1
    54   22   61 1
    55   23   24 1
    56   24   29 ar
    57   24   25 ar
    58   25   26 ar
    59   25   62 1
    60   26   27 ar
    61   26   63 1
    62   27   28 ar
    63   27   64 1
    64   28   29 ar
    65   28   65 1
    66   29   66 1
    67   30   35 1
    68   30   31 1
    69   30   67 1
    70   31   32 1
    71   31   68 1
    72   31   69 1
    73   32   33 1
    74   32   70 1
    75   32   71 1
    76   33   34 1
    77   33   72 1
    78   33   73 1
    79   34   35 1
    80   34   74 1
    81   34   75 1
    82   35   76 1
    83   35   77 1
@<TRIPOS>MOLECULE
CHEMBL397924__1
   79    83     0     0     0
SMALL
USER_CHARGES

@<TRIPOS>ATOM
      1 C1         -0.7411    1.1549    0.3559 C.3       1 <0>        -0.0601
      2 N1         -0.7049   -0.3126    0.4114 N.4       1 <0>        -0.3823
      3 C2         -2.0639   -0.8428    0.2386 C.3       1 <0>        -0.0240
      4 C3         -2.5692   -0.5032   -1.1651 C.3       1 <0>        -0.1732
      5 C4         -3.9846   -1.0554   -1.3451 C.3       1 <0>         0.1548
      6 C5         -4.5374   -0.6098   -2.7003 C.3       1 <0>        -0.0988
      7 C6         -4.6851    0.9130   -2.7151 C.3       1 <0>        -0.1124
      8 C7         -5.2379    1.3587   -4.0704 C.3       1 <0>        -0.1219
      9 C8         -6.6049    0.7114   -4.3014 C.3       1 <0>        -0.1261
     10 C9         -6.4572   -0.8114   -4.2866 C.3       1 <0>        -0.1196
     11 C10        -5.9044   -1.2570   -2.9313 C.3       1 <0>        -0.1131
     12 N2         -3.9486   -2.5189   -1.2897 N.pl3     1 <0>        -0.5989
     13 C11        -3.0639   -3.2831   -2.1831 C.3       1 <0>         0.1558
     14 C12        -3.8335   -4.4835   -2.6787 C.ar      1 <0>        -0.0853
     15 C13        -3.5193   -5.0698   -3.8841 C.ar      1 <0>        -0.1575
     16 C14        -4.2359   -6.1751   -4.3243 C.ar      1 <0>         0.1599
     17 C15        -5.2679   -6.6896   -3.5515 C.ar      1 <0>        -0.1086
     18 C16        -5.5881   -6.1063   -2.3432 C.ar      1 <0>        -0.0634
     19 C17        -4.8716   -4.9949   -1.8966 C.ar      1 <0>         0.0537
     20 N3         -5.1831   -4.4060   -0.6999 N.pl3     1 <0>        -0.5546
     21 C18        -4.7371   -3.2080   -0.3973 C.cat     1 <0>         0.7226
     22 N4         -5.0610   -2.6387    0.8095 N.pl3     1 <0>        -0.8073
     23 O1         -3.9262   -6.7542   -5.5150 O.3       1 <0>        -0.2394
     24 C19        -2.8380   -6.2925   -6.1850 C.ar      1 <0>         0.0610
     25 C20        -1.5627   -6.6396   -5.7625 C.ar      1 <0>        -0.1314
     26 C21        -0.4581   -6.1693   -6.4457 C.ar      1 <0>        -0.1042
     27 C22        -0.6224   -5.3532   -7.5498 C.ar      1 <0>        -0.1062
     28 C23        -1.8921   -5.0054   -7.9727 C.ar      1 <0>        -0.1014
     29 C24        -3.0002   -5.4776   -7.2964 C.ar      1 <0>        -0.1149
     30 C25        -0.1741   -0.7404    1.7126 C.3       1 <0>         0.0234
     31 C26         1.2413   -0.1882    1.8926 C.3       1 <0>        -0.1412
     32 C27         1.7941   -0.6338    3.2479 C.3       1 <0>        -0.1189
     33 C28         1.8318   -2.1623    3.3057 C.3       1 <0>        -0.1333
     34 C29         0.4164   -2.7145    3.1257 C.3       1 <0>        -0.1176
     35 C30        -0.1364   -2.2689    1.7704 C.3       1 <0>        -0.1376
     36 H1          0.2673    1.5484    0.4841 H         1 <0>         0.1333
     37 H2         -1.1349    1.4724   -0.6096 H         1 <0>         0.1267
     38 H3         -1.3825    1.5329    1.1520 H         1 <0>         0.1264
     39 H4         -2.0509   -1.9250    0.3681 H         1 <0>         0.1276
     40 H5         -2.7253   -0.3959    0.9808 H         1 <0>         0.1318
     41 H6         -2.5822    0.5790   -1.2946 H         1 <0>         0.1246
     42 H7         -1.9077   -0.9500   -1.9073 H         1 <0>         0.1063
     43 H8         -4.6261   -0.6774   -0.5490 H         1 <0>         0.1109
     44 H9         -3.8522   -0.9160   -3.4907 H         1 <0>         0.0901
     45 H10        -5.3704    1.2193   -1.9247 H         1 <0>         0.0705
     46 H11        -3.7113    1.3741   -2.5505 H         1 <0>         0.0664
     47 H12        -5.3431    2.4435   -4.0809 H         1 <0>         0.0740
     48 H13        -4.5527    1.0524   -4.8608 H         1 <0>         0.0668
     49 H14        -7.2901    1.0177   -3.5110 H         1 <0>         0.0648
     50 H15        -6.9987    1.0289   -5.2669 H         1 <0>         0.0723
     51 H16        -7.4310   -1.2725   -4.4512 H         1 <0>         0.0697
     52 H17        -5.7719   -1.1177   -5.0770 H         1 <0>         0.0656
     53 H18        -5.7992   -2.3419   -2.9208 H         1 <0>         0.0588
     54 H19        -6.5897   -0.9507   -2.1409 H         1 <0>         0.0633
     55 H20        -2.7657   -2.6615   -3.0273 H         1 <0>         0.1259
     56 H21        -2.1805   -3.6114   -1.6353 H         1 <0>         0.1019
     57 H22        -2.7164   -4.6710   -4.4863 H         1 <0>         0.1501
     58 H23        -5.8223   -7.5493   -3.8976 H         1 <0>         0.1594
     59 H24        -6.3918   -6.5085   -1.7442 H         1 <0>         0.1545
     60 H25        -4.6742   -1.7861    1.0630 H         1 <0>         0.4317
     61 H26        -5.6767   -3.0893    1.4086 H         1 <0>         0.4419
     62 H27        -1.4338   -7.2767   -4.9000 H         1 <0>         0.1315
     63 H28         0.5347   -6.4389   -6.1170 H         1 <0>         0.1353
     64 H29         0.2425   -4.9866   -8.0826 H         1 <0>         0.1352
     65 H30        -2.0177   -4.3676   -8.8351 H         1 <0>         0.1380
     66 H31        -3.9918   -5.2093   -7.6298 H         1 <0>         0.1358
     67 H32        -0.8156   -0.3624    2.5087 H         1 <0>         0.1385
     68 H33         1.8828   -0.5662    1.0965 H         1 <0>         0.0880
     69 H34         1.2145    0.9007    1.8514 H         1 <0>         0.0912
     70 H35         2.8025   -0.2404    3.3761 H         1 <0>         0.0892
     71 H36         1.1527   -0.2558    4.0440 H         1 <0>         0.0755
     72 H37         2.4733   -2.5403    2.5096 H         1 <0>         0.0717
     73 H38         2.2256   -2.4797    4.2712 H         1 <0>         0.0833
     74 H39         0.4432   -3.8034    3.1669 H         1 <0>         0.0852
     75 H40        -0.2251   -2.3365    3.9218 H         1 <0>         0.0748
     76 H41        -1.1448   -2.6623    1.6422 H         1 <0>         0.0765
     77 H42         0.5050   -2.6469    0.9743 H         1 <0>         0.0874
     78 H43        -5.7392   -4.8823   -0.0637 H         1 <0>         0.4452
     79 H44        -0.1111   -0.6625   -0.3255 H         1 <0>         0.4247
@<TRIPOS>BOND
     1    1    2 1
     2    1   36 1
     3    1   37 1
     4    1   38 1
     5    2    3 1
     6    2   30 1
     7    2   79 1
     8    3    4 1
     9    3   39 1
    10    3   40 1
    11    4    5 1
    12    4   41 1
    13    4   42 1
    14    5    6 1
    15    5   12 1
    16    5   43 1
    17    6   11 1
    18    6    7 1
    19    6   44 1
    20    7    8 1
    21    7   45 1
    22    7   46 1
    23    8    9 1
    24    8   47 1
    25    8   48 1
    26    9   10 1
    27    9   49 1
    28    9   50 1
    29   10   11 1
    30   10   51 1
    31   10   52 1
    32   11   53 1
    33   11   54 1
    34   12   21 1
    35   12   13 1
    36   13   14 1
    37   13   55 1
    38   13   56 1
    39   14   19 ar
    40   14   15 ar
    41   15   16 ar
    42   15   57 1
    43   16   17 ar
    44   16   23 1
    45   17   18 ar
    46   17   58 1
    47   18   19 ar
    48   18   59 1
    49   19   20 1
    50   20   21 2
    51   20   78 1
    52   21   22 1
    53   22   60 1
    54   22   61 1
    55   23   24 1
    56   24   29 ar
    57   24   25 ar
    58   25   26 ar
    59   25   62 1
    60   26   27 ar
    61   26   63 1
    62   27   28 ar
    63   27   64 1
    64   28   29 ar
    65   28   65 1
    66   29   66 1
    67   30   35 1
    68   30   31 1
    69   30   67 1
    70   31   32 1
    71   31   68 1
    72   31   69 1
    73   32   33 1
    74   32   70 1
    75   32   71 1
    76   33   34 1
    77   33   72 1
    78   33   73 1
    79   34   35 1
    80   34   74 1
    81   34   75 1
    82   35   76 1
    83   35   77 1
@<TRIPOS>MOLECULE
CHEMBL244342
   61    64     0     0     0
SMALL
USER_CHARGES

@<TRIPOS>ATOM
      1 C1         -0.0248    3.4486   -0.6423 C.3       1 <0>         0.0714
      2 N1         -0.2536    2.0474   -0.2811 N.am      1 <0>        -0.6108
      3 C2         -0.3991    1.6681    1.1264 C.3       1 <0>         0.1378
      4 C3         -1.5946    2.4060    1.7325 C.3       1 <0>        -0.1270
      5 C4         -1.7465    2.0099    3.2025 C.3       1 <0>        -0.1179
      6 C5         -0.4749    2.3855    3.9660 C.3       1 <0>        -0.1222
      7 C6          0.7205    1.6476    3.3599 C.3       1 <0>        -0.1182
      8 C7          0.8725    2.0437    1.8899 C.3       1 <0>        -0.1255
      9 C8         -0.3303    1.1072   -1.2438 C.2       1 <0>         0.5164
     10 O1         -0.5197   -0.0528   -0.9448 O.2       1 <0>        -0.5357
     11 C9         -0.1806    1.4974   -2.6917 C.3       1 <0>        -0.1625
     12 C10        -0.3074    0.2519   -3.5712 C.3       1 <0>         0.1334
     13 N2         -0.1619    0.6311   -4.9788 N.pl3     1 <0>        -0.6478
     14 C11        -1.3358    1.0148   -5.7777 C.3       1 <0>         0.1838
     15 C12        -1.1845    0.4013   -7.1494 C.ar      1 <0>        -0.2101
     16 C13        -2.2812    0.1246   -7.9068 C.ar      1 <0>        -0.0350
     17 C14        -2.1248   -0.4340   -9.1827 C.ar      1 <0>        -0.2098
     18 C15        -0.8411   -0.7044   -9.6746 C.ar      1 <0>        -0.0262
     19 C16         0.2556   -0.4305   -8.9125 C.ar      1 <0>        -0.1455
     20 C17         0.1002    0.1222   -7.6342 C.ar      1 <0>         0.2230
     21 N3          1.1914    0.3684   -6.8590 N.2       1 <0>        -0.6241
     22 C18         1.0737    0.6412   -5.5773 C.2       1 <0>         0.6622
     23 N4          2.1874    0.9325   -4.8347 N.pl3     1 <0>        -0.8270
     24 C19        -3.3078   -0.7366  -10.0048 C.2       1 <0>         0.4414
     25 O2         -3.1824   -1.3462  -11.0499 O.2       1 <0>        -0.4553
     26 C20        -4.6480   -0.2997   -9.5602 C.ar      1 <0>        -0.1515
     27 C21        -4.7992    0.9021   -8.8652 C.ar      1 <0>        -0.0875
     28 C22        -6.0529    1.3040   -8.4537 C.ar      1 <0>        -0.1295
     29 C23        -7.1592    0.5192   -8.7277 C.ar      1 <0>        -0.0958
     30 C24        -7.0165   -0.6730   -9.4156 C.ar      1 <0>        -0.1269
     31 C25        -5.7695   -1.0839   -9.8384 C.ar      1 <0>        -0.0687
     32 H1          1.0467    3.6471   -0.6671 H         1 <0>         0.0594
     33 H2         -0.4536    3.6452   -1.6249 H         1 <0>         0.0728
     34 H3         -0.4972    4.0961    0.0964 H         1 <0>         0.0768
     35 H4         -0.5616    0.5927    1.1980 H         1 <0>         0.1027
     36 H5         -1.4321    3.4815    1.6609 H         1 <0>         0.0659
     37 H6         -2.5005    2.1385    1.1886 H         1 <0>         0.0654
     38 H7         -2.5982    2.5356    3.6343 H         1 <0>         0.0671
     39 H8         -1.9090    0.9345    3.2741 H         1 <0>         0.0654
     40 H9         -0.3124    3.4609    3.8944 H         1 <0>         0.0626
     41 H10        -0.5832    2.1033    5.0132 H         1 <0>         0.0653
     42 H11         1.6264    1.9152    3.9038 H         1 <0>         0.0670
     43 H12         0.5580    0.5722    3.4315 H         1 <0>         0.0653
     44 H13         1.7241    1.5180    1.4581 H         1 <0>         0.0647
     45 H14         1.0350    3.1191    1.8183 H         1 <0>         0.0653
     46 H15        -0.9601    2.2112   -2.9581 H         1 <0>         0.1028
     47 H16         0.7975    1.9530   -2.8459 H         1 <0>         0.0920
     48 H17         0.4721   -0.4619   -3.3048 H         1 <0>         0.0865
     49 H18        -1.2855   -0.2038   -3.4169 H         1 <0>         0.0959
     50 H19        -2.2429    0.6396   -5.3039 H         1 <0>         0.0955
     51 H20        -1.3852    2.1003   -5.8627 H         1 <0>         0.0706
     52 H21        -3.2695    0.3346   -7.5253 H         1 <0>         0.1355
     53 H22        -0.7201   -1.1311  -10.6593 H         1 <0>         0.1342
     54 H23         1.2442   -0.6397   -9.2938 H         1 <0>         0.1332
     55 H24         2.1015    1.1307   -3.8890 H         1 <0>         0.4066
     56 H25         3.0618    0.9405   -5.2544 H         1 <0>         0.4225
     57 H26        -3.9366    1.5152   -8.6501 H         1 <0>         0.1347
     58 H27        -6.1713    2.2332   -7.9162 H         1 <0>         0.1289
     59 H28        -8.1385    0.8385   -8.4029 H         1 <0>         0.1269
     60 H29        -7.8840   -1.2811   -9.6255 H         1 <0>         0.1293
     61 H30        -5.6600   -2.0124  -10.3790 H         1 <0>         0.1307
@<TRIPOS>BOND
     1    1    2 1
     2    1   32 1
     3    1   33 1
     4    1   34 1
     5    2    3 1
     6    2    9 am
     7    3    8 1
     8    3    4 1
     9    3   35 1
    10    4    5 1
    11    4   36 1
    12    4   37 1
    13    5    6 1
    14    5   38 1
    15    5   39 1
    16    6    7 1
    17    6   40 1
    18    6   41 1
    19    7    8 1
    20    7   42 1
    21    7   43 1
    22    8   44 1
    23    8   45 1
    24    9   10 2
    25    9   11 1
    26   11   12 1
    27   11   46 1
    28   11   47 1
    29   12   13 1
    30   12   48 1
    31   12   49 1
    32   13   22 1
    33   13   14 1
    34   14   15 1
    35   14   50 1
    36   14   51 1
    37   15   20 ar
    38   15   16 ar
    39   16   17 ar
    40   16   52 1
    41   17   18 ar
    42   17   24 1
    43   18   19 ar
    44   18   53 1
    45   19   20 ar
    46   19   54 1
    47   20   21 1
    48   21   22 2
    49   22   23 1
    50   23   55 1
    51   23   56 1
    52   24   25 2
    53   24   26 1
    54   26   31 ar
    55   26   27 ar
    56   27   28 ar
    57   27   57 1
    58   28   29 ar
    59   28   58 1
    60   29   30 ar
    61   29   59 1
    62   30   31 ar
    63   30   60 1
    64   31   61 1
@<TRIPOS>MOLECULE
CHEMBL244342__1
   62    65     0     0     0
SMALL
USER_CHARGES

@<TRIPOS>ATOM
      1 C1         -0.0225    3.4505   -0.6437 C.3       1 <0>         0.0673
      2 N1         -0.2514    2.0494   -0.2822 N.am      1 <0>        -0.6039
      3 C2         -0.3966    1.6705    1.1255 C.3       1 <0>         0.1370
      4 C3         -1.5918    2.4086    1.7316 C.3       1 <0>        -0.1268
      5 C4         -1.7435    2.0128    3.2018 C.3       1 <0>        -0.1189
      6 C5         -0.4717    2.3885    3.9649 C.3       1 <0>        -0.1240
      7 C6          0.7236    1.6504    3.3587 C.3       1 <0>        -0.1191
      8 C7          0.8752    2.0461    1.8886 C.3       1 <0>        -0.1249
      9 C8         -0.3283    1.1090   -1.2446 C.2       1 <0>         0.5145
     10 O1         -0.5178   -0.0509   -0.9453 O.2       1 <0>        -0.5329
     11 C9         -0.1790    1.4988   -2.6926 C.3       1 <0>        -0.1682
     12 C10        -0.3061    0.2532   -3.5719 C.3       1 <0>         0.1196
     13 N2         -0.1608    0.6321   -4.9795 N.pl3     1 <0>        -0.5909
     14 C11        -1.3349    1.0156   -5.7783 C.3       1 <0>         0.1559
     15 C12        -1.1840    0.4018   -7.1499 C.ar      1 <0>        -0.1425
     16 C13        -2.2808    0.1250   -7.9070 C.ar      1 <0>        -0.0380
     17 C14        -2.1248   -0.4338   -9.1828 C.ar      1 <0>        -0.1416
     18 C15        -0.8412   -0.7045   -9.6749 C.ar      1 <0>        -0.0233
     19 C16         0.2557   -0.4304   -8.9131 C.ar      1 <0>        -0.1237
     20 C17         0.1007    0.1226   -7.6349 C.ar      1 <0>         0.1392
     21 N3          1.1920    0.3689   -6.8600 N.pl3     1 <0>        -0.5764
     22 C18         1.0746    0.6420   -5.5784 C.cat     1 <0>         0.7324
     23 N4          2.1885    0.9333   -4.8360 N.pl3     1 <0>        -0.7952
     24 C19        -3.3079   -0.7356  -10.0049 C.2       1 <0>         0.4351
     25 O2         -3.1829   -1.3454  -11.0500 O.2       1 <0>        -0.4266
     26 C20        -4.6479   -0.2977   -9.5605 C.ar      1 <0>        -0.1632
     27 C21        -4.7983    0.9041   -8.8654 C.ar      1 <0>        -0.0942
     28 C22        -6.0517    1.3069   -8.4540 C.ar      1 <0>        -0.1262
     29 C23        -7.1585    0.5230   -8.7282 C.ar      1 <0>        -0.0858
     30 C24        -7.0166   -0.6693   -9.4161 C.ar      1 <0>        -0.1207
     31 C25        -5.7699   -1.0811   -9.8388 C.ar      1 <0>        -0.0619
     32 H1          1.0490    3.6489   -0.6689 H         1 <0>         0.0622
     33 H2         -0.4516    3.6470   -1.6263 H         1 <0>         0.0713
     34 H3         -0.4947    4.0982    0.0950 H         1 <0>         0.0829
     35 H4         -0.5592    0.5951    1.1973 H         1 <0>         0.1049
     36 H5         -1.4293    3.4840    1.6598 H         1 <0>         0.0671
     37 H6         -2.4979    2.1410    1.1880 H         1 <0>         0.0657
     38 H7         -2.5950    2.5387    3.6336 H         1 <0>         0.0700
     39 H8         -1.9061    0.9374    3.2736 H         1 <0>         0.0664
     40 H9         -0.3091    3.4639    3.8930 H         1 <0>         0.0637
     41 H10        -0.5797    2.1065    5.0122 H         1 <0>         0.0684
     42 H11         1.6296    1.9180    3.9023 H         1 <0>         0.0695
     43 H12         0.5610    0.5749    3.4305 H         1 <0>         0.0661
     44 H13         1.7267    1.5203    1.4567 H         1 <0>         0.0638
     45 H14         1.0378    3.1215    1.8167 H         1 <0>         0.0665
     46 H15        -0.9585    2.2127   -2.9590 H         1 <0>         0.1144
     47 H16         0.7991    1.9544   -2.8472 H         1 <0>         0.0933
     48 H17         0.4734   -0.4606   -3.3055 H         1 <0>         0.1062
     49 H18        -1.2841   -0.2024   -3.4173 H         1 <0>         0.1279
     50 H19        -2.2419    0.6406   -5.3042 H         1 <0>         0.1309
     51 H20        -1.3843    2.1012   -5.8635 H         1 <0>         0.1087
     52 H21        -3.2690    0.3352   -7.5253 H         1 <0>         0.1616
     53 H22        -0.7205   -1.1313  -10.6596 H         1 <0>         0.1571
     54 H23         1.2442   -0.6398   -9.2946 H         1 <0>         0.1519
     55 H24         2.1029    1.1318   -3.8904 H         1 <0>         0.4388
     56 H25         3.0628    0.9411   -5.2560 H         1 <0>         0.4388
     57 H26        -3.9351    1.5165   -8.6501 H         1 <0>         0.1311
     58 H27        -6.1694    2.2362   -7.9163 H         1 <0>         0.1327
     59 H28        -8.1376    0.8429   -8.4034 H         1 <0>         0.1325
     60 H29        -7.8846   -1.2767   -9.6262 H         1 <0>         0.1351
     61 H30        -5.6611   -2.0097  -10.3795 H         1 <0>         0.1342
     62 H31         2.0748    0.3457   -7.2612 H         1 <0>         0.4446
@<TRIPOS>BOND
     1    1    2 1
     2    1   32 1
     3    1   33 1
     4    1   34 1
     5    2    3 1
     6    2    9 am
     7    3    8 1
     8    3    4 1
     9    3   35 1
    10    4    5 1
    11    4   36 1
    12    4   37 1
    13    5    6 1
    14    5   38 1
    15    5   39 1
    16    6    7 1
    17    6   40 1
    18    6   41 1
    19    7    8 1
    20    7   42 1
    21    7   43 1
    22    8   44 1
    23    8   45 1
    24    9   10 2
    25    9   11 1
    26   11   12 1
    27   11   46 1
    28   11   47 1
    29   12   13 1
    30   12   48 1
    31   12   49 1
    32   13   22 1
    33   13   14 1
    34   14   15 1
    35   14   50 1
    36   14   51 1
    37   15   20 ar
    38   15   16 ar
    39   16   17 ar
    40   16   52 1
    41   17   18 ar
    42   17   24 1
    43   18   19 ar
    44   18   53 1
    45   19   20 ar
    46   19   54 1
    47   20   21 1
    48   21   22 2
    49   21   62 1
    50   22   23 1
    51   23   55 1
    52   23   56 1
    53   24   25 2
    54   24   26 1
    55   26   31 ar
    56   26   27 ar
    57   27   28 ar
    58   27   57 1
    59   28   29 ar
    60   28   58 1
    61   29   30 ar
    62   29   59 1
    63   30   31 ar
    64   30   60 1
    65   31   61 1
@<TRIPOS>MOLECULE
CHEMBL244346
   68    72     0     0     0
SMALL
USER_CHARGES

@<TRIPOS>ATOM
      1 C1         -1.2258    1.1672   -0.1287 C.3       1 <0>         0.0654
      2 N1         -0.5601   -0.1358   -0.0563 N.am      1 <0>        -0.6025
      3 C2         -0.4225   -0.8174    1.2332 C.3       1 <0>         0.1396
      4 C3         -1.8100   -1.0780    1.8229 C.3       1 <0>        -0.1270
      5 C4         -1.6662   -1.7899    3.1696 C.3       1 <0>        -0.1179
      6 C5         -0.8616   -0.9100    4.1283 C.3       1 <0>        -0.1234
      7 C6          0.5259   -0.6494    3.5386 C.3       1 <0>        -0.1179
      8 C7          0.3822    0.0625    2.1919 C.3       1 <0>        -0.1265
      9 C8         -0.0742   -0.7074   -1.1759 C.2       1 <0>         0.5560
     10 O1          0.3821   -1.8333   -1.1347 O.2       1 <0>        -0.5296
     11 C9         -0.0962    0.0349   -2.4543 C.ar      1 <0>        -0.1207
     12 C10         0.1033    1.4165   -2.4662 C.ar      1 <0>        -0.0716
     13 C11         0.0820    2.1031   -3.6624 C.ar      1 <0>        -0.1201
     14 C12        -0.1370    1.4253   -4.8488 C.ar      1 <0>        -0.0842
     15 C13        -0.3355    0.0563   -4.8440 C.ar      1 <0>        -0.1438
     16 C14        -0.3109   -0.6433   -3.6550 C.ar      1 <0>        -0.0391
     17 C15        -0.5738   -0.6734   -6.1409 C.3       1 <0>         0.1579
     18 N2          0.7127   -1.0032   -6.7592 N.pl3     1 <0>        -0.5912
     19 C16         1.3301   -2.3215   -6.5489 C.3       1 <0>         0.1563
     20 C17         2.8130   -2.1148   -6.3535 C.ar      1 <0>        -0.0834
     21 C18         3.5568   -3.0217   -5.6320 C.ar      1 <0>        -0.1534
     22 C19         4.9220   -2.8250   -5.4701 C.ar      1 <0>         0.1506
     23 C20         5.5381   -1.7168   -6.0353 C.ar      1 <0>        -0.1119
     24 C21         4.7977   -0.8024   -6.7550 C.ar      1 <0>        -0.0722
     25 C22         3.4239   -0.9925   -6.9157 C.ar      1 <0>         0.0643
     26 N3          2.6765   -0.0737   -7.6025 N.pl3     1 <0>        -0.5659
     27 C23         1.3651   -0.0877   -7.5531 C.cat     1 <0>         0.7278
     28 N4          0.6403    0.8150   -8.2915 N.pl3     1 <0>        -0.8043
     29 O2          5.6565   -3.7194   -4.7563 O.3       1 <0>        -0.2435
     30 C24         5.0359   -4.8425   -4.3096 C.ar      1 <0>         0.0636
     31 C25         4.7457   -5.8737   -5.1916 C.ar      1 <0>        -0.1322
     32 C26         4.1150   -7.0147   -4.7347 C.ar      1 <0>        -0.1043
     33 C27         3.7729   -7.1297   -3.3999 C.ar      1 <0>        -0.1080
     34 C28         4.0605   -6.1034   -2.5191 C.ar      1 <0>        -0.1004
     35 C29         4.6962   -4.9627   -2.9696 C.ar      1 <0>        -0.1139
     36 H1         -0.5056    1.9558    0.0894 H         1 <0>         0.0624
     37 H2         -1.6319    1.3126   -1.1297 H         1 <0>         0.0776
     38 H3         -2.0353    1.2026    0.6005 H         1 <0>         0.0791
     39 H4          0.0952   -1.7658    1.0894 H         1 <0>         0.1034
     40 H5         -2.3276   -0.1296    1.9667 H         1 <0>         0.0671
     41 H6         -2.3832   -1.7049    1.1399 H         1 <0>         0.0657
     42 H7         -2.6547   -1.9756    3.5897 H         1 <0>         0.0691
     43 H8         -1.1486   -2.7383    3.0258 H         1 <0>         0.0656
     44 H9         -1.3793    0.0384    4.2721 H         1 <0>         0.0636
     45 H10        -0.7592   -1.4171    5.0877 H         1 <0>         0.0675
     46 H11         1.0991   -0.0225    4.2216 H         1 <0>         0.0690
     47 H12         1.0435   -1.5978    3.3948 H         1 <0>         0.0654
     48 H13         1.3706    0.2482    1.7717 H         1 <0>         0.0642
     49 H14        -0.1355    1.0109    2.3357 H         1 <0>         0.0670
     50 H15         0.2737    1.9467   -1.5408 H         1 <0>         0.1418
     51 H16         0.2363    3.1719   -3.6730 H         1 <0>         0.1370
     52 H17        -0.1534    1.9677   -5.7826 H         1 <0>         0.1215
     53 H18        -0.4618   -1.7127   -3.6530 H         1 <0>         0.1359
     54 H19        -1.1285   -1.5910   -5.9448 H         1 <0>         0.1247
     55 H20        -1.1487   -0.0383   -6.8148 H         1 <0>         0.1008
     56 H21         0.9035   -2.7912   -5.6626 H         1 <0>         0.1258
     57 H22         1.1576   -2.9526   -7.4206 H         1 <0>         0.1091
     58 H23         3.0790   -3.8847   -5.1922 H         1 <0>         0.1501
     59 H24         6.6008   -1.5700   -5.9108 H         1 <0>         0.1553
     60 H25         5.2797    0.0588   -7.1936 H         1 <0>         0.1513
     61 H26        -0.3243    0.8547   -8.1980 H         1 <0>         0.4383
     62 H27         1.0930    1.4131   -8.9065 H         1 <0>         0.4374
     63 H28         5.0123   -5.7843   -6.2343 H         1 <0>         0.1313
     64 H29         3.8886   -7.8174   -5.4208 H         1 <0>         0.1346
     65 H30         3.2799   -8.0225   -3.0448 H         1 <0>         0.1336
     66 H31         3.7920   -6.1956   -1.4771 H         1 <0>         0.1363
     67 H32         4.9246   -4.1632   -2.2803 H         1 <0>         0.1342
     68 H33         3.1246    0.5987   -8.1391 H         1 <0>         0.4412
@<TRIPOS>BOND
     1    1    2 1
     2    1   36 1
     3    1   37 1
     4    1   38 1
     5    2    3 1
     6    2    9 am
     7    3    8 1
     8    3    4 1
     9    3   39 1
    10    4    5 1
    11    4   40 1
    12    4   41 1
    13    5    6 1
    14    5   42 1
    15    5   43 1
    16    6    7 1
    17    6   44 1
    18    6   45 1
    19    7    8 1
    20    7   46 1
    21    7   47 1
    22    8   48 1
    23    8   49 1
    24    9   10 2
    25    9   11 1
    26   11   16 ar
    27   11   12 ar
    28   12   13 ar
    29   12   50 1
    30   13   14 ar
    31   13   51 1
    32   14   15 ar
    33   14   52 1
    34   15   16 ar
    35   15   17 1
    36   16   53 1
    37   17   18 1
    38   17   54 1
    39   17   55 1
    40   18   27 1
    41   18   19 1
    42   19   20 1
    43   19   56 1
    44   19   57 1
    45   20   25 ar
    46   20   21 ar
    47   21   22 ar
    48   21   58 1
    49   22   23 ar
    50   22   29 1
    51   23   24 ar
    52   23   59 1
    53   24   25 ar
    54   24   60 1
    55   25   26 1
    56   26   27 2
    57   26   68 1
    58   27   28 1
    59   28   61 1
    60   28   62 1
    61   29   30 1
    62   30   35 ar
    63   30   31 ar
    64   31   32 ar
    65   31   63 1
    66   32   33 ar
    67   32   64 1
    68   33   34 ar
    69   33   65 1
    70   34   35 ar
    71   34   66 1
    72   35   67 1
@<TRIPOS>MOLECULE
CHEMBL598259
   49    52     0     0     0
SMALL
USER_CHARGES

@<TRIPOS>ATOM
      1 C1         -2.2754    2.7040   -0.1358 C.3       1 <0>        -0.1482
      2 C2         -1.5265    1.5606   -0.8233 C.3       1 <0>        -0.0789
      3 C3         -2.1295    0.2436   -0.4075 C.ar      1 <0>         0.1549
      4 C4         -2.5676   -0.6425   -1.3738 C.ar      1 <0>        -0.1559
      5 C5         -3.1207   -1.8514   -0.9807 C.ar      1 <0>        -0.0653
      6 C6         -3.2129   -2.1251    0.3756 C.ar      1 <0>        -0.1609
      7 C7         -2.7537   -1.1904    1.2839 C.ar      1 <0>         0.1313
      8 N1         -2.2281   -0.0525    0.8735 N.ar      1 <0>        -0.4588
      9 C8         -3.6106   -2.8443   -2.0031 C.3       1 <0>         0.2190
     10 C9         -3.1639   -4.2465   -1.6393 C.2       1 <0>         0.5443
     11 O1         -3.4451   -4.8742   -0.6407 O.2       1 <0>        -0.3804
     12 N2         -2.3860   -4.6454   -2.6676 N.am      1 <0>        -0.5516
     13 C10        -2.2992   -3.6602   -3.6198 C.cat     1 <0>         0.7337
     14 N3         -2.9755   -2.5981   -3.3076 N.pl3     1 <0>        -0.6278
     15 N4         -1.5729   -3.7855   -4.7799 N.pl3     1 <0>        -0.7730
     16 C11        -1.7252   -5.9500   -2.7556 C.3       1 <0>         0.0575
     17 C12        -5.1112   -2.7790   -2.1248 C.ar      1 <0>        -0.1133
     18 C13        -5.9034   -2.9653   -1.0061 C.ar      1 <0>        -0.0788
     19 C14        -7.2812   -2.9067   -1.1106 C.ar      1 <0>        -0.0934
     20 C15        -7.8734   -2.6612   -2.3331 C.ar      1 <0>        -0.0805
     21 C16        -7.0804   -2.4723   -3.4629 C.ar      1 <0>        -0.0215
     22 C17        -5.6925   -2.5277   -3.3509 C.ar      1 <0>        -0.0964
     23 C18        -7.7113   -2.2081   -4.7798 C.ar      1 <0>        -0.1653
     24 C19        -6.9323   -2.0220   -5.9245 C.ar      1 <0>         0.1581
     25 N5         -7.5350   -1.7894   -7.0779 N.ar      1 <0>        -0.5128
     26 C20        -8.8497   -1.7322   -7.1563 C.ar      1 <0>         0.3068
     27 N6         -9.6213   -1.9016   -6.1009 N.ar      1 <0>        -0.5068
     28 C21        -9.1008   -2.1443   -4.9102 C.ar      1 <0>         0.1687
     29 H1         -1.8393    3.6567   -0.4365 H         1 <0>         0.0667
     30 H2         -3.3256    2.6773   -0.4266 H         1 <0>         0.0535
     31 H3         -2.1949    2.5928    0.9455 H         1 <0>         0.0700
     32 H4         -1.6070    1.6719   -1.9046 H         1 <0>         0.0803
     33 H5         -0.4764    1.5874   -0.5325 H         1 <0>         0.0914
     34 H6         -2.4804   -0.3960   -2.4216 H         1 <0>         0.1322
     35 H7         -3.6386   -3.0568    0.7177 H         1 <0>         0.1519
     36 H8         -2.8220   -1.3960    2.3419 H         1 <0>         0.1736
     37 H9         -1.0857   -4.6045   -4.9610 H         1 <0>         0.4464
     38 H10        -1.5475   -3.0550   -5.4175 H         1 <0>         0.4477
     39 H11        -2.3869   -6.6596   -3.2522 H         1 <0>         0.1043
     40 H12        -0.8025   -5.8521   -3.3276 H         1 <0>         0.1027
     41 H13        -1.4946   -6.3088   -1.7526 H         1 <0>         0.1207
     42 H14        -5.4443   -3.1577   -0.0477 H         1 <0>         0.1393
     43 H15        -7.8950   -3.0536   -0.2342 H         1 <0>         0.1468
     44 H16        -8.9494   -2.6160   -2.4137 H         1 <0>         0.1417
     45 H17        -5.0730   -2.3783   -4.2229 H         1 <0>         0.1214
     46 H18        -5.8548   -2.0671   -5.8680 H         1 <0>         0.1601
     47 H19        -9.3089   -1.5403   -8.1148 H         1 <0>         0.2054
     48 H20        -9.7394   -2.2866   -4.0510 H         1 <0>         0.1738
     49 H21        -3.0496   -1.7892   -3.8377 H         1 <0>         0.4657
@<TRIPOS>BOND
     1    1    2 1
     2    1   29 1
     3    1   30 1
     4    1   31 1
     5    2    3 1
     6    2   32 1
     7    2   33 1
     8    3    8 ar
     9    3    4 ar
    10    4    5 ar
    11    4   34 1
    12    5    6 ar
    13    5    9 1
    14    6    7 ar
    15    6   35 1
    16    7    8 ar
    17    7   36 1
    18    9   14 1
    19    9   10 1
    20    9   17 1
    21   10   11 2
    22   10   12 am
    23   12   13 1
    24   12   16 1
    25   13   14 2
    26   13   15 1
    27   14   49 1
    28   15   37 1
    29   15   38 1
    30   16   39 1
    31   16   40 1
    32   16   41 1
    33   17   22 ar
    34   17   18 ar
    35   18   19 ar
    36   18   42 1
    37   19   20 ar
    38   19   43 1
    39   20   21 ar
    40   20   44 1
    41   21   22 ar
    42   21   23 1
    43   22   45 1
    44   23   28 ar
    45   23   24 ar
    46   24   25 ar
    47   24   46 1
    48   25   26 ar
    49   26   27 ar
    50   26   47 1
    51   27   28 ar
    52   28   48 1
@<TRIPOS>MOLECULE
CHEMBL598259__1
   49    52     0     0     0
SMALL
USER_CHARGES

@<TRIPOS>ATOM
      1 C1          1.1826    2.7470   -1.8688 C.3       1 <0>        -0.1483
      2 C2          1.4278    1.5925   -0.8952 C.3       1 <0>        -0.0783
      3 C3          1.3985    0.2867   -1.6468 C.ar      1 <0>         0.1531
      4 C4          2.4734   -0.5777   -1.5566 C.ar      1 <0>        -0.1537
      5 C5          2.4364   -1.7764   -2.2520 C.ar      1 <0>        -0.0638
      6 C6          1.3147   -2.0622   -3.0155 C.ar      1 <0>        -0.1657
      7 C7          0.2784   -1.1491   -3.0577 C.ar      1 <0>         0.1301
      8 N1          0.3456   -0.0205   -2.3786 N.ar      1 <0>        -0.4598
      9 C8          3.5882   -2.7457   -2.1802 C.3       1 <0>         0.2289
     10 C9          3.0785   -4.1608   -2.0100 C.2       1 <0>         0.5425
     11 O1          2.3698   -4.7739   -2.7795 O.2       1 <0>        -0.3871
     12 N2          3.5670   -4.6054   -0.8368 N.am      1 <0>        -0.5522
     13 C10         4.3351   -3.6469   -0.2219 C.cat     1 <0>         0.7336
     14 N3          4.3934   -2.4990   -0.9730 N.pl3     1 <0>        -0.6646
     15 N4          4.9305   -3.8061    0.9248 N.pl3     1 <0>        -0.7289
     16 C11         3.3123   -5.9392   -0.2870 C.3       1 <0>         0.0550
     17 C12         4.4443   -2.6366   -3.4156 C.ar      1 <0>        -0.1123
     18 C13         5.7968   -2.3708   -3.2970 C.ar      1 <0>        -0.1000
     19 C14         6.5884   -2.2694   -4.4265 C.ar      1 <0>        -0.0993
     20 C15         6.0322   -2.4335   -5.6792 C.ar      1 <0>        -0.0834
     21 C16         4.6709   -2.7017   -5.8044 C.ar      1 <0>        -0.0161
     22 C17         3.8789   -2.8076   -4.6627 C.ar      1 <0>        -0.0784
     23 C18         4.0674   -2.8791   -7.1485 C.ar      1 <0>        -0.1697
     24 C19         2.7031   -3.1428   -7.2936 C.ar      1 <0>         0.1652
     25 N5          2.2062   -3.2936   -8.5093 N.ar      1 <0>        -0.5109
     26 C20         2.9782   -3.1982   -9.5737 C.ar      1 <0>         0.3069
     27 N6          4.2698   -2.9511   -9.4811 N.ar      1 <0>        -0.5104
     28 C21         4.8466   -2.7812   -8.3038 C.ar      1 <0>         0.1677
     29 H1          1.9604    2.7498   -2.6324 H         1 <0>         0.0533
     30 H2          0.2089    2.6222   -2.3425 H         1 <0>         0.0697
     31 H3          1.2038    3.6915   -1.3252 H         1 <0>         0.0663
     32 H4          2.4015    1.7174   -0.4215 H         1 <0>         0.0801
     33 H5          0.6500    1.5898   -0.1316 H         1 <0>         0.0906
     34 H6          3.3313   -0.3223   -0.9523 H         1 <0>         0.1331
     35 H7          1.2520   -2.9865   -3.5706 H         1 <0>         0.1498
     36 H8         -0.5987   -1.3642   -3.6500 H         1 <0>         0.1725
     37 H9          4.8462   -4.6461    1.4025 H         1 <0>         0.4508
     38 H10         4.0826   -6.6282   -0.6334 H         1 <0>         0.1051
     39 H11         3.3294   -5.8928    0.8019 H         1 <0>         0.1017
     40 H12         2.3353   -6.2891   -0.6204 H         1 <0>         0.1221
     41 H13         6.2360   -2.2417   -2.3189 H         1 <0>         0.1239
     42 H14         7.6435   -2.0610   -4.3283 H         1 <0>         0.1423
     43 H15         6.6512   -2.3537   -6.5606 H         1 <0>         0.1406
     44 H16         2.8237   -3.0191   -4.7539 H         1 <0>         0.1367
     45 H17         2.0646   -3.2226   -6.4263 H         1 <0>         0.1665
     46 H18         2.5389   -3.3270  -10.5519 H         1 <0>         0.2049
     47 H19         5.9045   -2.5745   -8.2361 H         1 <0>         0.1720
     48 H20         4.8721   -1.6849   -0.7517 H         1 <0>         0.4647
     49 H21         5.4583   -3.0847    1.3015 H         1 <0>         0.4531
@<TRIPOS>BOND
     1    1    2 1
     2    1   29 1
     3    1   30 1
     4    1   31 1
     5    2    3 1
     6    2   32 1
     7    2   33 1
     8    3    8 ar
     9    3    4 ar
    10    4    5 ar
    11    4   34 1
    12    5    6 ar
    13    5    9 1
    14    6    7 ar
    15    6   35 1
    16    7    8 ar
    17    7   36 1
    18    9   14 1
    19    9   10 1
    20    9   17 1
    21   10   11 2
    22   10   12 am
    23   12   13 1
    24   12   16 1
    25   13   14 1
    26   13   15 2
    27   14   48 1
    28   15   37 1
    29   15   49 1
    30   16   38 1
    31   16   39 1
    32   16   40 1
    33   17   22 ar
    34   17   18 ar
    35   18   19 ar
    36   18   41 1
    37   19   20 ar
    38   19   42 1
    39   20   21 ar
    40   20   43 1
    41   21   22 ar
    42   21   23 1
    43   22   44 1
    44   23   28 ar
    45   23   24 ar
    46   24   25 ar
    47   24   45 1
    48   25   26 ar
    49   26   27 ar
    50   26   46 1
    51   27   28 ar
    52   28   47 1
@<TRIPOS>MOLECULE
CHEMBL598259__2
   49    52     0     0     0
SMALL
USER_CHARGES

@<TRIPOS>ATOM
      1 C1          0.9492   -0.3522    1.0055 C.3       1 <0>        -0.1474
      2 C2          0.1091   -1.6249    1.1299 C.3       1 <0>        -0.0795
      3 C3         -1.2678   -1.3746    0.5710 C.ar      1 <0>         0.1545
      4 C4         -1.7650   -2.2032   -0.4174 C.ar      1 <0>        -0.1575
      5 C5         -3.0327   -1.9643   -0.9248 C.ar      1 <0>        -0.0655
      6 C6         -3.7564   -0.8960   -0.4168 C.ar      1 <0>        -0.1566
      7 C7         -3.1938   -0.1106    0.5712 C.ar      1 <0>         0.1308
      8 N1         -1.9865   -0.3709    1.0342 N.ar      1 <0>        -0.4589
      9 C8         -3.6106   -2.8443   -2.0031 C.3       1 <0>         0.2188
     10 C9         -4.2318   -2.0027   -3.1004 C.2       1 <0>         0.5450
     11 O1         -5.1557   -1.2241   -2.9988 O.2       1 <0>        -0.3815
     12 N2         -3.5338   -2.3073   -4.2147 N.am      1 <0>        -0.5514
     13 C10        -2.5589   -3.2334   -3.9375 C.cat     1 <0>         0.7347
     14 N3         -2.5427   -3.5883   -2.6898 N.pl3     1 <0>        -0.6279
     15 N4         -1.6929   -3.7316   -4.8812 N.pl3     1 <0>        -0.7729
     16 C11        -3.7822   -1.7293   -5.5377 C.3       1 <0>         0.0576
     17 C12        -4.6263   -3.7934   -1.4212 C.ar      1 <0>        -0.1122
     18 C13        -5.8433   -3.3123   -0.9727 C.ar      1 <0>        -0.0845
     19 C14        -6.7800   -4.1776   -0.4376 C.ar      1 <0>        -0.0925
     20 C15        -6.5050   -5.5275   -0.3488 C.ar      1 <0>        -0.0813
     21 C16        -5.2812   -6.0175   -0.7994 C.ar      1 <0>        -0.0206
     22 C17        -4.3429   -5.1416   -1.3421 C.ar      1 <0>        -0.0939
     23 C18        -4.9799   -7.4676   -0.7065 C.ar      1 <0>        -0.1658
     24 C19        -3.7559   -7.9761   -1.1478 C.ar      1 <0>         0.1586
     25 N5         -3.5282   -9.2743   -1.0463 N.ar      1 <0>        -0.5126
     26 C20        -4.4359  -10.0840   -0.5379 C.ar      1 <0>         0.3070
     27 N6         -5.6033   -9.6455   -0.1104 N.ar      1 <0>        -0.5072
     28 C21        -5.9102   -8.3610   -0.1698 C.ar      1 <0>         0.1686
     29 H1          1.9451   -0.5333    1.4098 H         1 <0>         0.0668
     30 H2          1.0289   -0.0707   -0.0445 H         1 <0>         0.0510
     31 H3          0.4720    0.4540    1.5626 H         1 <0>         0.0702
     32 H4          0.5863   -2.4311    0.5728 H         1 <0>         0.0801
     33 H5          0.0294   -1.9065    2.1799 H         1 <0>         0.0931
     34 H6         -1.1731   -3.0262   -0.7899 H         1 <0>         0.1316
     35 H7         -4.7470   -0.6802   -0.7889 H         1 <0>         0.1507
     36 H8         -3.7508    0.7233    0.9721 H         1 <0>         0.1735
     37 H9         -1.7516   -3.4292   -5.8010 H         1 <0>         0.4464
     38 H10        -1.0230   -4.3857   -4.6275 H         1 <0>         0.4477
     39 H11        -3.1822   -0.8274   -5.6587 H         1 <0>         0.1042
     40 H12        -3.5106   -2.4523   -6.3069 H         1 <0>         0.1028
     41 H13        -4.8387   -1.4781   -5.6320 H         1 <0>         0.1210
     42 H14        -6.0626   -2.2569   -1.0403 H         1 <0>         0.1410
     43 H15        -7.7283   -3.7966   -0.0883 H         1 <0>         0.1467
     44 H16        -7.2371   -6.2023    0.0695 H         1 <0>         0.1417
     45 H17        -3.3941   -5.5168   -1.6963 H         1 <0>         0.1211
     46 H18        -3.0075   -7.3190   -1.5658 H         1 <0>         0.1609
     47 H19        -4.2164  -11.1393   -0.4700 H         1 <0>         0.2053
     48 H20        -6.8668   -8.0086    0.1867 H         1 <0>         0.1737
     49 H21        -1.9365   -4.2273   -2.2834 H         1 <0>         0.4649
@<TRIPOS>BOND
     1    1    2 1
     2    1   29 1
     3    1   30 1
     4    1   31 1
     5    2    3 1
     6    2   32 1
     7    2   33 1
     8    3    8 ar
     9    3    4 ar
    10    4    5 ar
    11    4   34 1
    12    5    6 ar
    13    5    9 1
    14    6    7 ar
    15    6   35 1
    16    7    8 ar
    17    7   36 1
    18    9   14 1
    19    9   10 1
    20    9   17 1
    21   10   11 2
    22   10   12 am
    23   12   13 1
    24   12   16 1
    25   13   14 2
    26   13   15 1
    27   14   49 1
    28   15   37 1
    29   15   38 1
    30   16   39 1
    31   16   40 1
    32   16   41 1
    33   17   22 ar
    34   17   18 ar
    35   18   19 ar
    36   18   42 1
    37   19   20 ar
    38   19   43 1
    39   20   21 ar
    40   20   44 1
    41   21   22 ar
    42   21   23 1
    43   22   45 1
    44   23   28 ar
    45   23   24 ar
    46   24   25 ar
    47   24   46 1
    48   25   26 ar
    49   26   27 ar
    50   26   47 1
    51   27   28 ar
    52   28   48 1
@<TRIPOS>MOLECULE
CHEMBL598259__3
   49    52     0     0     0
SMALL
USER_CHARGES

@<TRIPOS>ATOM
      1 C1         -1.3200   -0.3401    0.3052 C.3       1 <0>        -0.1473
      2 C2         -0.9951   -1.5986   -0.5021 C.3       1 <0>        -0.0789
      3 C3          0.1731   -1.3232   -1.4134 C.ar      1 <0>         0.1524
      4 C4          1.2866   -2.1406   -1.3626 C.ar      1 <0>        -0.1551
      5 C5          2.3559   -1.8786   -2.2052 C.ar      1 <0>        -0.0642
      6 C6          2.2647   -0.7993   -3.0712 C.ar      1 <0>        -0.1599
      7 C7          1.1193   -0.0264   -3.0656 C.ar      1 <0>         0.1295
      8 N1          0.1190   -0.3085   -2.2537 N.ar      1 <0>        -0.4600
      9 C8          3.5882   -2.7457   -2.1802 C.3       1 <0>         0.2289
     10 C9          4.8366   -1.8899   -2.1606 C.2       1 <0>         0.5433
     11 O1          5.1859   -1.0972   -3.0090 O.2       1 <0>        -0.3887
     12 N2          5.4829   -2.1814   -1.0160 N.am      1 <0>        -0.5521
     13 C10         4.8030   -3.1264   -0.2870 C.cat     1 <0>         0.7343
     14 N3          3.6511   -3.5137   -0.9262 N.pl3     1 <0>        -0.6648
     15 N4          5.1995   -3.5944    0.8613 N.pl3     1 <0>        -0.7287
     16 C11         6.7480   -1.5697   -0.6016 C.3       1 <0>         0.0550
     17 C12         3.6015   -3.6739   -3.3673 C.ar      1 <0>        -0.1114
     18 C13         3.4055   -5.0311   -3.1848 C.ar      1 <0>        -0.0971
     19 C14         3.4165   -5.8887   -4.2698 C.ar      1 <0>        -0.0987
     20 C15         3.6229   -5.3938   -5.5418 C.ar      1 <0>        -0.0840
     21 C16         3.8204   -4.0278   -5.7315 C.ar      1 <0>        -0.0155
     22 C17         3.8035   -3.1677   -4.6351 C.ar      1 <0>        -0.0840
     23 C18         4.0428   -3.4900   -7.0965 C.ar      1 <0>        -0.1699
     24 C19         4.2483   -2.1241   -7.3052 C.ar      1 <0>         0.1649
     25 N5          4.4431   -1.6871   -8.5376 N.ar      1 <0>        -0.5111
     26 C20         4.4450   -2.5198   -9.5596 C.ar      1 <0>         0.3068
     27 N6          4.2546   -3.8152   -9.4067 N.ar      1 <0>        -0.5105
     28 C21         4.0582   -4.3365   -8.2078 C.ar      1 <0>         0.1677
     29 H1         -0.4526   -0.0572    0.9017 H         1 <0>         0.0507
     30 H2         -1.5737    0.4727   -0.3753 H         1 <0>         0.0700
     31 H3         -2.1649   -0.5393    0.9643 H         1 <0>         0.0663
     32 H4         -0.7414   -2.4114    0.1784 H         1 <0>         0.0799
     33 H5         -1.8625   -1.8815   -1.0986 H         1 <0>         0.0925
     34 H6          1.3233   -2.9726   -0.6750 H         1 <0>         0.1326
     35 H7          3.0788   -0.5657   -3.7413 H         1 <0>         0.1482
     36 H8          1.0405    0.8158   -3.7371 H         1 <0>         0.1722
     37 H9          6.0260   -3.2750    1.2559 H         1 <0>         0.4508
     38 H10         6.5435   -0.6731   -0.0166 H         1 <0>         0.1050
     39 H11         7.3127   -2.2781    0.0045 H         1 <0>         0.1020
     40 H12         7.3289   -1.3029   -1.4845 H         1 <0>         0.1223
     41 H13         3.2437   -5.4225   -2.1913 H         1 <0>         0.1236
     42 H14         3.2637   -6.9475   -4.1215 H         1 <0>         0.1426
     43 H15         3.6317   -6.0644   -6.3883 H         1 <0>         0.1406
     44 H16         3.9524   -2.1075   -4.7770 H         1 <0>         0.1386
     45 H17         4.2478   -1.4358   -6.4729 H         1 <0>         0.1673
     46 H18         4.6073   -2.1284  -10.5531 H         1 <0>         0.2048
     47 H19         3.9075   -5.3994   -8.0898 H         1 <0>         0.1720
     48 H20         3.0050   -4.1657   -0.6124 H         1 <0>         0.4642
     49 H21         4.6685   -4.2627    1.3222 H         1 <0>         0.4532
@<TRIPOS>BOND
     1    1    2 1
     2    1   29 1
     3    1   30 1
     4    1   31 1
     5    2    3 1
     6    2   32 1
     7    2   33 1
     8    3    8 ar
     9    3    4 ar
    10    4    5 ar
    11    4   34 1
    12    5    6 ar
    13    5    9 1
    14    6    7 ar
    15    6   35 1
    16    7    8 ar
    17    7   36 1
    18    9   14 1
    19    9   10 1
    20    9   17 1
    21   10   11 2
    22   10   12 am
    23   12   13 1
    24   12   16 1
    25   13   14 1
    26   13   15 2
    27   14   48 1
    28   15   37 1
    29   15   49 1
    30   16   38 1
    31   16   39 1
    32   16   40 1
    33   17   22 ar
    34   17   18 ar
    35   18   19 ar
    36   18   41 1
    37   19   20 ar
    38   19   42 1
    39   20   21 ar
    40   20   43 1
    41   21   22 ar
    42   21   23 1
    43   22   44 1
    44   23   28 ar
    45   23   24 ar
    46   24   25 ar
    47   24   45 1
    48   25   26 ar
    49   26   27 ar
    50   26   46 1
    51   27   28 ar
    52   28   47 1
@<TRIPOS>MOLECULE
CHEMBL570745
   74    76     0     0     0
SMALL
USER_CHARGES

@<TRIPOS>ATOM
      1 C1         -0.6772    2.5668   -0.4739 C.3       1 <0>        -0.1824
      2 C2         -0.3725    1.1056   -0.6815 C.2       1 <0>         0.5120
      3 O1          0.0123    0.4283    0.2481 O.2       1 <0>        -0.5330
      4 N1         -0.5276    0.5514   -1.9002 N.am      1 <0>        -0.7319
      5 C3         -0.2314   -0.8691   -2.1020 C.3       1 <0>         0.1323
      6 H1         -0.4144   -1.1340   -3.1434 H         1 <0>         0.1054
      7 C4          1.2348   -1.1383   -1.7575 C.3       1 <0>        -0.0987
      8 C5          2.1222   -0.4040   -2.7292 C.ar      1 <0>        -0.0283
      9 C6          2.5195   -1.0186   -3.9017 C.ar      1 <0>        -0.1646
     10 C7          3.3353   -0.3450   -4.7951 C.ar      1 <0>         0.1398
     11 C8          3.7525    0.9445   -4.5139 C.ar      1 <0>        -0.1923
     12 C9          3.3536    1.5592   -3.3396 C.ar      1 <0>         0.1389
     13 C10         2.5335    0.8856   -2.4500 C.ar      1 <0>        -0.1581
     14 F1          3.7600    2.8178   -3.0638 F         1 <0>        -0.1259
     15 F2          3.7242   -0.9463   -5.9407 F         1 <0>        -0.1256
     16 C11        -1.1312   -1.7115   -1.1957 C.3       1 <0>         0.0684
     17 H2         -0.9482   -1.4466   -0.1544 H         1 <0>         0.1450
     18 C12        -2.5974   -1.4423   -1.5403 C.3       1 <0>        -0.0560
     19 N2         -3.4625   -2.1581   -0.5930 N.4       1 <0>        -0.5001
     20 C13        -4.8660   -2.0019   -0.9973 C.3       1 <0>         0.1166
     21 C14        -5.2278   -0.5154   -1.0199 C.3       1 <0>        -0.1307
     22 C15        -5.0300    0.0789    0.3760 C.3       1 <0>        -0.1294
     23 C16        -5.9322   -0.6505    1.3734 C.3       1 <0>         0.0992
     24 C17        -5.5705   -2.1370    1.3960 C.3       1 <0>        -0.1721
     25 C18        -5.7683   -2.7313    0.0001 C.3       1 <0>        -0.1258
     26 O2         -7.2976   -0.4985    0.9802 O.3       1 <0>        -0.5588
     27 C19        -5.0609   -2.5872   -2.3722 C.ar      1 <0>        -0.1211
     28 C20        -4.2290   -3.5976   -2.8176 C.ar      1 <0>        -0.1431
     29 C21        -4.4077   -4.1345   -4.0786 C.ar      1 <0>        -0.0965
     30 C22        -5.4187   -3.6614   -4.8945 C.ar      1 <0>        -0.0995
     31 C23        -6.2510   -2.6519   -4.4488 C.ar      1 <0>        -0.0453
     32 C24        -6.0749   -2.1178   -3.1858 C.ar      1 <0>        -0.0861
     33 C25        -7.3527   -2.1359   -5.3383 C.3       1 <0>        -0.0346
     34 C26        -7.3314   -2.8927   -6.6678 C.3       1 <0>        -0.1509
     35 C27        -8.7036   -2.3482   -4.6522 C.3       1 <0>        -0.1426
     36 C28        -7.1415   -0.6429   -5.5978 C.3       1 <0>        -0.1410
     37 O3         -0.8423   -3.0971   -1.3926 O.3       1 <0>        -0.5425
     38 H3          0.2225    3.1548   -0.6549 H         1 <0>         0.1025
     39 H4         -1.4594    2.8768   -1.1668 H         1 <0>         0.0837
     40 H5         -1.0151    2.7255    0.5502 H         1 <0>         0.0997
     41 H6         -0.8354    1.0930   -2.6437 H         1 <0>         0.4119
     42 H7          1.4397   -0.7912   -0.7447 H         1 <0>         0.1083
     43 H8          1.4327   -2.2082   -1.8218 H         1 <0>         0.1015
     44 H9          2.1939   -2.0247   -4.1209 H         1 <0>         0.1430
     45 H10         4.3890    1.4705   -5.2100 H         1 <0>         0.1523
     46 H11         2.2186    1.3666   -1.5358 H         1 <0>         0.1359
     47 H12        -2.7953   -0.3724   -1.4759 H         1 <0>         0.1412
     48 H13        -2.8023   -1.7894   -2.5530 H         1 <0>         0.1423
     49 H14        -3.2202   -3.1376   -0.5904 H         1 <0>         0.4278
     50 H15        -4.5850    0.0042   -1.7304 H         1 <0>         0.0881
     51 H16        -6.2693   -0.3995   -1.3199 H         1 <0>         0.1222
     52 H17        -3.9885   -0.0371    0.6760 H         1 <0>         0.0688
     53 H18        -5.2877    1.1378    0.3600 H         1 <0>         0.1017
     54 H19        -5.7913   -0.2271    2.3679 H         1 <0>         0.0739
     55 H20        -4.5290   -2.2529    1.6960 H         1 <0>         0.0676
     56 H21        -6.2132   -2.6566    2.1066 H         1 <0>         0.0986
     57 H22        -6.8098   -2.6153   -0.2999 H         1 <0>         0.1191
     58 H23        -5.5106   -3.7902    0.0162 H         1 <0>         0.0897
     59 H24        -7.9276   -0.9366    1.5687 H         1 <0>         0.3896
     60 H25        -3.4392   -3.9672   -2.1804 H         1 <0>         0.1158
     61 H26        -3.7574   -4.9233   -4.4268 H         1 <0>         0.1353
     62 H27        -5.5579   -4.0804   -5.8801 H         1 <0>         0.1392
     63 H28        -6.7276   -1.3316   -2.8361 H         1 <0>         0.1349
     64 H29        -7.4818   -3.9563   -6.4829 H         1 <0>         0.0615
     65 H30        -8.1282   -2.5195   -7.3111 H         1 <0>         0.0670
     66 H31        -6.3689   -2.7414   -7.1566 H         1 <0>         0.0608
     67 H32        -8.7188   -1.8091   -3.7050 H         1 <0>         0.0569
     68 H33        -9.5005   -1.9750   -5.2955 H         1 <0>         0.0672
     69 H34        -8.8541   -3.4119   -4.4673 H         1 <0>         0.0590
     70 H35        -6.1791   -0.4917   -6.0866 H         1 <0>         0.0577
     71 H36        -7.9384   -0.2697   -6.2411 H         1 <0>         0.0672
     72 H37        -7.1567   -0.1038   -4.6506 H         1 <0>         0.0559
     73 H38        -0.9833   -3.4033   -2.2989 H         1 <0>         0.3866
     74 H39        -3.3347   -1.7776    0.3327 H         1 <0>         0.4252
@<TRIPOS>BOND
     1    1    2 1
     2    1   38 1
     3    1   39 1
     4    1   40 1
     5    2    3 2
     6    2    4 am
     7    4    5 1
     8    4   41 1
     9    5    6 1
    10    5    7 1
    11    5   16 1
    12    7    8 1
    13    7   42 1
    14    7   43 1
    15    8   13 ar
    16    8    9 ar
    17    9   10 ar
    18    9   44 1
    19   10   11 ar
    20   10   15 1
    21   11   12 ar
    22   11   45 1
    23   12   13 ar
    24   12   14 1
    25   13   46 1
    26   16   17 1
    27   16   18 1
    28   16   37 1
    29   18   19 1
    30   18   47 1
    31   18   48 1
    32   19   20 1
    33   19   49 1
    34   19   74 1
    35   20   25 1
    36   20   21 1
    37   20   27 1
    38   21   22 1
    39   21   50 1
    40   21   51 1
    41   22   23 1
    42   22   52 1
    43   22   53 1
    44   23   24 1
    45   23   26 1
    46   23   54 1
    47   24   25 1
    48   24   55 1
    49   24   56 1
    50   25   57 1
    51   25   58 1
    52   26   59 1
    53   27   32 ar
    54   27   28 ar
    55   28   29 ar
    56   28   60 1
    57   29   30 ar
    58   29   61 1
    59   30   31 ar
    60   30   62 1
    61   31   32 ar
    62   31   33 1
    63   32   63 1
    64   33   34 1
    65   33   35 1
    66   33   36 1
    67   34   64 1
    68   34   65 1
    69   34   66 1
    70   35   67 1
    71   35   68 1
    72   35   69 1
    73   36   70 1
    74   36   71 1
    75   36   72 1
    76   37   73 1
@<TRIPOS>MOLECULE
CHEMBL253237
   58    61     0     0     0
SMALL
USER_CHARGES

@<TRIPOS>ATOM
      1 C1          4.2318   -0.8066   -0.0476 C.3       1 <0>        -0.2023
      2 C2          3.4050   -0.0299   -1.0396 C.2       1 <0>         0.3978
      3 O1          3.4328    1.1828   -1.0346 O.2       1 <0>        -0.4621
      4 C3          2.5656   -0.7411   -2.0123 C.ar      1 <0>        -0.2103
      5 C4          2.5273   -2.1411   -2.0163 C.ar      1 <0>        -0.0311
      6 C5          1.7417   -2.8003   -2.9262 C.ar      1 <0>        -0.2103
      7 C6          0.9835   -2.0811   -3.8443 C.ar      1 <0>         0.1576
      8 C7          1.0180   -0.6904   -3.8445 C.ar      1 <0>        -0.1589
      9 C8          1.7963   -0.0216   -2.9352 C.ar      1 <0>        -0.0216
     10 O2          0.2082   -2.7380   -4.7428 O.3       1 <0>        -0.2511
     11 C9          0.2735   -4.0948   -4.7700 C.ar      1 <0>         0.0737
     12 C10         0.9864   -4.7338   -5.7763 C.ar      1 <0>        -0.1059
     13 C11         1.0547   -6.1101   -5.8078 C.ar      1 <0>        -0.1134
     14 C12         0.4063   -6.8621   -4.8259 C.ar      1 <0>        -0.0052
     15 C13        -0.3091   -6.2158   -3.8156 C.ar      1 <0>        -0.0872
     16 C14        -0.3681   -4.8389   -3.7883 C.ar      1 <0>        -0.1225
     17 C15         0.4765   -8.3377   -4.8561 C.2       1 <0>         0.0647
     18 C16         0.2945   -9.1700   -3.7899 C.2       1 <0>        -0.1655
     19 C17         0.4451  -10.4839   -4.2473 C.2       1 <0>        -0.1523
     20 C18         0.7161  -10.4278   -5.5835 C.2       1 <0>         0.0586
     21 N1          0.7301   -9.1088   -5.9615 N.pl3     1 <0>        -0.4136
     22 C19         0.9773   -8.6088   -7.3162 C.3       1 <0>         0.0665
     23 C20         2.4623   -8.5020   -7.5490 C.2       1 <0>         0.4940
     24 O3          3.2396   -8.8137   -6.6681 O.2       1 <0>        -0.5042
     25 N2          2.9230   -8.0663   -8.7198 N.2       1 <0>        -0.7044
     26 C21         3.7381   -8.8288   -9.4375 C.2       1 <0>         0.7063
     27 N3          4.0105  -10.1016   -9.0353 N.pl3     1 <0>        -0.8619
     28 N4          4.3025   -8.3389  -10.5765 N.pl3     1 <0>        -0.8225
     29 C22         0.9483  -11.5865   -6.4704 C.ar      1 <0>        -0.0093
     30 C23         0.2559  -11.6952   -7.6780 C.ar      1 <0>        -0.1096
     31 C24         0.4778  -12.7792   -8.5016 C.ar      1 <0>        -0.1116
     32 C25         1.3842  -13.7582   -8.1340 C.ar      1 <0>        -0.1058
     33 C26         2.0738  -13.6580   -6.9390 C.ar      1 <0>        -0.1092
     34 C27         1.8660  -12.5754   -6.1074 C.ar      1 <0>        -0.0181
     35 Cl1         2.7374  -12.4471   -4.6114 Cl        1 <0>        -0.0475
     36 H1          3.6478   -0.9787    0.8565 H         1 <0>         0.0984
     37 H2          4.5174   -1.7640   -0.4833 H         1 <0>         0.0856
     38 H3          5.1284   -0.2389    0.2016 H         1 <0>         0.0887
     39 H4          3.1159   -2.7004   -1.3042 H         1 <0>         0.1378
     40 H5          1.7117   -3.8799   -2.9304 H         1 <0>         0.1374
     41 H6          0.4278   -0.1366   -4.5595 H         1 <0>         0.1403
     42 H7          1.8190    1.0582   -2.9332 H         1 <0>         0.1426
     43 H8          1.4876   -4.1515   -6.5353 H         1 <0>         0.1356
     44 H9          1.6087   -6.6062   -6.5910 H         1 <0>         0.1315
     45 H10        -0.8122   -6.7938   -3.0546 H         1 <0>         0.1392
     46 H11        -0.9175   -4.3381   -3.0049 H         1 <0>         0.1367
     47 H12         0.0743   -8.8691   -2.7763 H         1 <0>         0.1434
     48 H13         0.3619  -11.3802   -3.6506 H         1 <0>         0.1415
     49 H14         0.5442   -9.2969   -8.0421 H         1 <0>         0.1160
     50 H15         0.5201   -7.6258   -7.4296 H         1 <0>         0.1269
     51 H16         4.8983   -8.8963  -11.1011 H         1 <0>         0.4126
     52 H17         3.5504  -10.4767   -8.2682 H         1 <0>         0.4186
     53 H18         4.1085   -7.4327  -10.8629 H         1 <0>         0.4273
     54 H19         4.6645  -10.6327   -9.5160 H         1 <0>         0.4046
     55 H20        -0.4521  -10.9324   -7.9665 H         1 <0>         0.1293
     56 H21        -0.0576  -12.8643   -9.4357 H         1 <0>         0.1322
     57 H22         1.5537  -14.6047   -8.7829 H         1 <0>         0.1345
     58 H23         2.7792  -14.4259   -6.6579 H         1 <0>         0.1378
@<TRIPOS>BOND
     1    1    2 1
     2    1   36 1
     3    1   37 1
     4    1   38 1
     5    2    3 2
     6    2    4 1
     7    4    9 ar
     8    4    5 ar
     9    5    6 ar
    10    5   39 1
    11    6    7 ar
    12    6   40 1
    13    7    8 ar
    14    7   10 1
    15    8    9 ar
    16    8   41 1
    17    9   42 1
    18   10   11 1
    19   11   16 ar
    20   11   12 ar
    21   12   13 ar
    22   12   43 1
    23   13   14 ar
    24   13   44 1
    25   14   15 ar
    26   14   17 1
    27   15   16 ar
    28   15   45 1
    29   16   46 1
    30   17   21 1
    31   17   18 2
    32   18   19 1
    33   18   47 1
    34   19   20 2
    35   19   48 1
    36   20   21 1
    37   20   29 1
    38   21   22 1
    39   22   49 1
    40   22   50 1
    41   22   23 1
    42   23   25 1
    43   23   24 2
    44   25   26 2
    45   26   27 1
    46   26   28 1
    47   27   52 1
    48   27   54 1
    49   28   53 1
    50   28   51 1
    51   29   34 ar
    52   29   30 ar
    53   30   31 ar
    54   30   55 1
    55   31   32 ar
    56   31   56 1
    57   32   33 ar
    58   32   57 1
    59   33   34 ar
    60   33   58 1
    61   34   35 1
@<TRIPOS>MOLECULE
CHEMBL237493
   66    69     0     0     0
SMALL
USER_CHARGES

@<TRIPOS>ATOM
      1 C1          0.0743    1.4015   -0.1920 C.ar      1 <0>        -0.1102
      2 C2          1.2651    2.1058   -0.1976 C.ar      1 <0>        -0.1032
      3 C3          2.4728    1.4329   -0.1663 C.ar      1 <0>        -0.1069
      4 C4          2.4960    0.0521   -0.1293 C.ar      1 <0>        -0.0386
      5 C5          1.2986   -0.6622   -0.1235 C.ar      1 <0>        -0.0262
      6 C6          0.0852    0.0220   -0.1551 C.ar      1 <0>        -0.0946
      7 C7          1.3164   -2.1456   -0.0843 C.2       1 <0>        -0.0904
      8 C8          0.8463   -2.8775   -1.1350 C.2       1 <0>        -0.2242
      9 S1          1.0635   -4.4710   -0.6503 S.3       1 <0>         0.2479
     10 C9          1.7821   -4.1883    0.9556 C.2       1 <0>        -0.1406
     11 C10         1.8174   -2.8216    1.0206 C.2       1 <0>        -0.0817
     12 C11         2.3627   -2.0934    2.2221 C.3       1 <0>        -0.0820
     13 C12         1.2806   -1.9604    3.2626 C.2       1 <0>         0.5393
     14 O1          0.1758   -2.4123    3.0495 O.2       1 <0>        -0.4622
     15 N1          1.5410   -1.3392    4.4300 N.am      1 <0>        -0.6631
     16 C13         0.5863   -1.3164    5.4283 C.cat     1 <0>         0.7297
     17 N2          0.8728   -0.8067    6.5915 N.pl3     1 <0>        -0.7591
     18 N3         -0.6660   -1.8320    5.1936 N.pl3     1 <0>        -0.6563
     19 C14        -1.7137   -1.7024    6.2093 C.3       1 <0>         0.0825
     20 C15        -3.0004   -2.3558    5.7009 C.3       1 <0>        -0.1359
     21 C16        -4.0947   -2.2204    6.7617 C.3       1 <0>         0.0808
     22 O2         -5.2964   -2.8306    6.2869 O.3       1 <0>        -0.5699
     23 C17         2.2298   -5.1755    1.9572 C.ar      1 <0>         0.0141
     24 C18         1.3837   -6.2233    2.3327 C.ar      1 <0>        -0.1040
     25 C19         1.7976   -7.1366    3.2598 C.ar      1 <0>        -0.0515
     26 C20         3.0679   -7.0240    3.8333 C.ar      1 <0>        -0.1236
     27 C21         3.9142   -5.9763    3.4575 C.ar      1 <0>        -0.0825
     28 C22         3.5021   -5.0661    2.5264 C.ar      1 <0>        -0.1151
     29 C23         3.5151   -8.0104    4.8355 C.2       1 <0>         0.5525
     30 O3          2.7790   -8.9213    5.1626 O.2       1 <0>        -0.5279
     31 N4          4.7395   -7.9018    5.3883 N.am      1 <0>        -0.7220
     32 C24         5.1835   -8.8812    6.3832 C.3       1 <0>         0.1492
     33 C25         6.5988   -8.5312    6.8471 C.3       1 <0>        -0.1772
     34 C26         7.7107   -9.5376    6.5441 C.3       1 <0>        -0.1748
     35 C27         7.1998   -9.3703    7.9766 C.3       1 <0>        -0.1675
     36 Cl1         4.0126   -0.7918   -0.0907 Cl        1 <0>        -0.0568
     37 H1         -0.8658    1.9326   -0.2120 H         1 <0>         0.1335
     38 H2          1.2514    3.1853   -0.2268 H         1 <0>         0.1366
     39 H3          3.3994    1.9877   -0.1713 H         1 <0>         0.1390
     40 H4         -0.8452   -0.5263   -0.1504 H         1 <0>         0.1331
     41 H5          0.4303   -2.5160   -2.0638 H         1 <0>         0.1918
     42 H6          3.1996   -2.6544    2.6379 H         1 <0>         0.1287
     43 H7          2.7027   -1.1020    1.9227 H         1 <0>         0.1273
     44 H8          0.2282   -0.8559    7.3146 H         1 <0>         0.4454
     45 H9         -0.8560   -2.2817    4.3554 H         1 <0>         0.4468
     46 H10        -1.3934   -2.1962    7.1267 H         1 <0>         0.0958
     47 H11        -1.8969   -0.6468    6.4097 H         1 <0>         0.0992
     48 H12        -3.3207   -1.8620    4.7835 H         1 <0>         0.0900
     49 H13        -2.8173   -3.4114    5.5005 H         1 <0>         0.0901
     50 H14        -3.7744   -2.7142    7.6791 H         1 <0>         0.0536
     51 H15        -4.2778   -1.1648    6.9621 H         1 <0>         0.0534
     52 H16        -6.0347   -2.7823    6.9096 H         1 <0>         0.3935
     53 H17         0.4025   -6.3103    1.8897 H         1 <0>         0.1364
     54 H18         1.1437   -7.9456    3.5503 H         1 <0>         0.1445
     55 H19         4.8952   -5.8890    3.9006 H         1 <0>         0.1324
     56 H20         4.1574   -4.2594    2.2328 H         1 <0>         0.1338
     57 H21         5.3267   -7.1752    5.1273 H         1 <0>         0.3998
     58 H22         4.5065   -8.8639    7.2373 H         1 <0>         0.0750
     59 H23         5.1825   -9.8765    5.9389 H         1 <0>         0.0745
     60 H24         6.8556   -7.4724    6.8154 H         1 <0>         0.1090
     61 H25         7.4338  -10.4491    6.0143 H         1 <0>         0.0989
     62 H26         8.6992   -9.1409    6.3128 H         1 <0>         0.0985
     63 H27         7.8522   -8.8635    8.6877 H         1 <0>         0.1004
     64 H28         6.5869  -10.1717    8.3892 H         1 <0>         0.0999
     65 H29         2.3987   -0.9081    4.5692 H         1 <0>         0.4465
     66 H30         1.7308   -0.3776    6.7349 H         1 <0>         0.4445
@<TRIPOS>BOND
     1    1    6 ar
     2    1    2 ar
     3    1   37 1
     4    2    3 ar
     5    2   38 1
     6    3    4 ar
     7    3   39 1
     8    4    5 ar
     9    4   36 1
    10    5    6 ar
    11    5    7 1
    12    6   40 1
    13    7   11 1
    14    7    8 2
    15    8    9 1
    16    8   41 1
    17    9   10 1
    18   10   11 2
    19   10   23 1
    20   11   12 1
    21   12   13 1
    22   12   42 1
    23   12   43 1
    24   13   15 am
    25   13   14 2
    26   15   16 1
    27   15   65 1
    28   16   17 2
    29   16   18 1
    30   17   44 1
    31   17   66 1
    32   18   19 1
    33   18   45 1
    34   19   20 1
    35   19   46 1
    36   19   47 1
    37   20   21 1
    38   20   48 1
    39   20   49 1
    40   21   22 1
    41   21   50 1
    42   21   51 1
    43   22   52 1
    44   23   28 ar
    45   23   24 ar
    46   24   25 ar
    47   24   53 1
    48   25   26 ar
    49   25   54 1
    50   26   27 ar
    51   26   29 1
    52   27   28 ar
    53   27   55 1
    54   28   56 1
    55   29   30 2
    56   29   31 am
    57   31   32 1
    58   31   57 1
    59   32   33 1
    60   32   58 1
    61   32   59 1
    62   33   35 1
    63   33   34 1
    64   33   60 1
    65   34   35 1
    66   34   61 1
    67   34   62 1
    68   35   63 1
    69   35   64 1
@<TRIPOS>MOLECULE
CHEMBL237493__1
   65    68     0     0     0
SMALL
USER_CHARGES

@<TRIPOS>ATOM
      1 C1          0.3068    2.2579    0.5044 C.ar      1 <0>        -0.1119
      2 C2          1.5562    2.8518    0.5115 C.ar      1 <0>        -0.1066
      3 C3          2.6983    2.0722    0.5264 C.ar      1 <0>        -0.1088
      4 C4          2.5967    0.6944    0.5342 C.ar      1 <0>        -0.0290
      5 C5          1.3398    0.0911    0.5271 C.ar      1 <0>        -0.0169
      6 C6          0.1931    0.8825    0.5121 C.ar      1 <0>        -0.0905
      7 C7          1.2237   -1.3883    0.5349 C.2       1 <0>        -0.0879
      8 C8          0.6895   -2.0524   -0.5301 C.2       1 <0>        -0.2285
      9 S1          0.7619   -3.6689   -0.0796 S.3       1 <0>         0.2038
     10 C9          1.5030   -3.4863    1.5307 C.2       1 <0>        -0.1590
     11 C10         1.6614   -2.1300    1.6245 C.2       1 <0>        -0.0467
     12 C11         2.2700   -1.4796    2.8401 C.3       1 <0>        -0.0911
     13 C12         1.2078   -1.2869    3.8915 C.2       1 <0>         0.5224
     14 O1          0.0662   -1.6433    3.6746 O.2       1 <0>        -0.5291
     15 N1          1.5198   -0.7260    5.0581 N.2       1 <0>        -0.7040
     16 C13         1.3017   -1.3837    6.1898 C.2       1 <0>         0.6995
     17 N2          0.7001   -2.6056    6.1625 N.pl3     1 <0>        -0.8633
     18 N3          1.6794   -0.8369    7.3790 N.pl3     1 <0>        -0.7041
     19 C14         1.4386   -1.5629    8.6285 C.3       1 <0>         0.1150
     20 C15         1.9535   -0.7343    9.8072 C.3       1 <0>        -0.1326
     21 C16         1.7021   -1.4926   11.1120 C.3       1 <0>         0.0795
     22 O2          2.1830   -0.7187   12.2129 O.3       1 <0>        -0.5732
     23 C17         1.8596   -4.5309    2.5104 C.ar      1 <0>         0.0349
     24 C18         0.9331   -5.5241    2.8417 C.ar      1 <0>        -0.1107
     25 C19         1.2628   -6.4904    3.7486 C.ar      1 <0>        -0.0521
     26 C20         2.5272   -6.4867    4.3456 C.ar      1 <0>        -0.1357
     27 C21         3.4540   -5.4936    4.0139 C.ar      1 <0>        -0.0801
     28 C22         3.1259   -4.5304    3.1030 C.ar      1 <0>        -0.1130
     29 C23         2.8834   -7.5305    5.3259 C.2       1 <0>         0.5581
     30 O3          2.0774   -8.3939    5.6147 O.2       1 <0>        -0.5340
     31 N4          4.1022   -7.5269    5.9013 N.am      1 <0>        -0.7243
     32 C24         4.4558   -8.5632    6.8746 C.3       1 <0>         0.1507
     33 C25         5.8841   -8.3303    7.3712 C.3       1 <0>        -0.1749
     34 C26         6.9255   -9.4064    7.0572 C.3       1 <0>        -0.1757
     35 C27         6.4021   -9.2420    8.4855 C.3       1 <0>        -0.1685
     36 Cl1         4.0310   -0.2835    0.5523 Cl        1 <0>        -0.0626
     37 H1         -0.5817    2.8719    0.4973 H         1 <0>         0.1304
     38 H2          1.6400    3.9285    0.5051 H         1 <0>         0.1329
     39 H3          3.6712    2.5411    0.5315 H         1 <0>         0.1352
     40 H4         -0.7830    0.4204    0.5069 H         1 <0>         0.1309
     41 H5          0.3079   -1.6353   -1.4503 H         1 <0>         0.1866
     42 H6          3.0611   -2.1169    3.2354 H         1 <0>         0.0995
     43 H7          2.6875   -0.5115    2.5635 H         1 <0>         0.1074
     44 H8          0.5106   -3.0341    5.3131 H         1 <0>         0.4199
     45 H9          0.4612   -3.0473    6.9924 H         1 <0>         0.3998
     46 H10         2.1078    0.0332    7.3985 H         1 <0>         0.4252
     47 H11         0.3693   -1.7377    8.7469 H         1 <0>         0.0717
     48 H12         1.9621   -2.5186    8.6000 H         1 <0>         0.0723
     49 H13         3.0229   -0.5595    9.6888 H         1 <0>         0.0829
     50 H14         1.4301    0.2214    9.8356 H         1 <0>         0.0829
     51 H15         0.6327   -1.6674   11.2304 H         1 <0>         0.0504
     52 H16         2.2255   -2.4483   11.0836 H         1 <0>         0.0501
     53 H17         2.0562   -1.1392   13.0744 H         1 <0>         0.3858
     54 H18        -0.0436   -5.5270    2.3806 H         1 <0>         0.1348
     55 H19         0.5468   -7.2573    4.0050 H         1 <0>         0.1412
     56 H20         4.4305   -5.4904    4.4752 H         1 <0>         0.1284
     57 H21         3.8432   -3.7658    2.8435 H         1 <0>         0.1329
     58 H22         4.7452   -6.8381    5.6710 H         1 <0>         0.4006
     59 H23         3.7664   -8.5202    7.7178 H         1 <0>         0.0737
     60 H24         4.3908   -9.5431    6.4017 H         1 <0>         0.0720
     61 H25         6.2175   -7.2926    7.3742 H         1 <0>         0.1101
     62 H26         6.5930  -10.2803    6.4969 H         1 <0>         0.0978
     63 H27         7.9442   -9.0767    6.8534 H         1 <0>         0.0973
     64 H28         7.0765   -8.8040    9.2213 H         1 <0>         0.0992
     65 H29         5.7253  -10.0076    8.8647 H         1 <0>         0.0988
@<TRIPOS>BOND
     1    1    6 ar
     2    1    2 ar
     3    1   37 1
     4    2    3 ar
     5    2   38 1
     6    3    4 ar
     7    3   39 1
     8    4    5 ar
     9    4   36 1
    10    5    6 ar
    11    5    7 1
    12    6   40 1
    13    7   11 1
    14    7    8 2
    15    8    9 1
    16    8   41 1
    17    9   10 1
    18   10   11 2
    19   10   23 1
    20   11   12 1
    21   12   13 1
    22   12   42 1
    23   12   43 1
    24   13   14 2
    25   13   15 1
    26   15   16 2
    27   16   17 1
    28   16   18 1
    29   17   44 1
    30   17   45 1
    31   18   19 1
    32   18   46 1
    33   19   20 1
    34   19   47 1
    35   19   48 1
    36   20   21 1
    37   20   49 1
    38   20   50 1
    39   21   22 1
    40   21   51 1
    41   21   52 1
    42   22   53 1
    43   23   28 ar
    44   23   24 ar
    45   24   25 ar
    46   24   54 1
    47   25   26 ar
    48   25   55 1
    49   26   27 ar
    50   26   29 1
    51   27   28 ar
    52   27   56 1
    53   28   57 1
    54   29   30 2
    55   29   31 am
    56   31   32 1
    57   31   58 1
    58   32   33 1
    59   32   59 1
    60   32   60 1
    61   33   35 1
    62   33   34 1
    63   33   61 1
    64   34   35 1
    65   34   62 1
    66   34   63 1
    67   35   64 1
    68   35   65 1
@<TRIPOS>MOLECULE
CHEMBL237493__2
   65    68     0     0     0
SMALL
USER_CHARGES

@<TRIPOS>ATOM
      1 C1          0.3661    2.3049    0.6786 C.ar      1 <0>        -0.1119
      2 C2          1.6065    2.9150    0.7350 C.ar      1 <0>        -0.1068
      3 C3          2.7582    2.1503    0.7684 C.ar      1 <0>        -0.1090
      4 C4          2.6755    0.7715    0.7456 C.ar      1 <0>        -0.0290
      5 C5          1.4278    0.1519    0.6888 C.ar      1 <0>        -0.0163
      6 C6          0.2712    0.9283    0.6554 C.ar      1 <0>        -0.0904
      7 C7          1.3319   -1.3288    0.6636 C.2       1 <0>        -0.0877
      8 C8          0.8388   -1.9780   -0.4300 C.2       1 <0>        -0.2291
      9 S1          0.9201   -3.6022   -0.0099 S.3       1 <0>         0.2038
     10 C9          1.6105   -3.4428    1.6251 C.2       1 <0>        -0.1579
     11 C10         1.7474   -2.0867    1.7507 C.2       1 <0>        -0.0475
     12 C11         2.3106   -1.4533    2.9967 C.3       1 <0>        -0.0906
     13 C12         1.2126   -1.2852    4.0151 C.2       1 <0>         0.5215
     14 O1          0.0814   -1.6451    3.7542 O.2       1 <0>        -0.5287
     15 N1          1.4817   -0.7423    5.2007 N.2       1 <0>        -0.7038
     16 C13         1.2306   -1.4205    6.3134 C.2       1 <0>         0.6978
     17 N2          1.5827   -0.9005    7.5223 N.pl3     1 <0>        -0.8257
     18 N3          0.6207   -2.6369    6.2467 N.pl3     1 <0>        -0.7394
     19 C14         0.2332   -3.3305    7.4775 C.3       1 <0>         0.1107
     20 C15        -0.4271   -4.6648    7.1248 C.3       1 <0>        -0.1328
     21 C16        -0.8318   -5.3892    8.4102 C.3       1 <0>         0.0828
     22 O2         -1.4485   -6.6354    8.0808 O.3       1 <0>        -0.5686
     23 C17         1.9523   -4.5023    2.5940 C.ar      1 <0>         0.0336
     24 C18         1.0238   -5.5049    2.8899 C.ar      1 <0>        -0.1103
     25 C19         1.3398   -6.4851    3.7868 C.ar      1 <0>        -0.0509
     26 C20         2.5922   -6.4862    4.4088 C.ar      1 <0>        -0.1345
     27 C21         3.5208   -5.4837    4.1124 C.ar      1 <0>        -0.0810
     28 C22         3.2066   -4.5066    3.2116 C.ar      1 <0>        -0.1129
     29 C23         2.9335   -7.5450    5.3782 C.2       1 <0>         0.5573
     30 O3          2.1258   -8.4165    5.6362 O.2       1 <0>        -0.5297
     31 N4          4.1406   -7.5461    5.9778 N.am      1 <0>        -0.7252
     32 C24         4.4795   -8.5973    6.9402 C.3       1 <0>         0.1514
     33 C25         5.8966   -8.3670    7.4691 C.3       1 <0>        -0.1744
     34 C26         6.9488   -9.4332    7.1578 C.3       1 <0>        -0.1758
     35 C27         6.3964   -9.2952    8.5779 C.3       1 <0>        -0.1686
     36 Cl1         4.1220   -0.1876    0.7870 Cl        1 <0>        -0.0626
     37 H1         -0.5301    2.9072    0.6572 H         1 <0>         0.1303
     38 H2          1.6756    3.9927    0.7526 H         1 <0>         0.1328
     39 H3          3.7240    2.6319    0.8120 H         1 <0>         0.1351
     40 H4         -0.6979    0.4536    0.6118 H         1 <0>         0.1309
     41 H5          0.4789   -1.5472   -1.3527 H         1 <0>         0.1864
     42 H6          3.0925   -2.0921    3.4075 H         1 <0>         0.0993
     43 H7          2.7304   -0.4779    2.7506 H         1 <0>         0.1074
     44 H8          2.0169   -0.0344    7.5697 H         1 <0>         0.4245
     45 H9          1.3991   -1.3962    8.3355 H         1 <0>         0.4091
     46 H10         0.4429   -3.0437    5.3842 H         1 <0>         0.4213
     47 H11         1.1190   -3.5131    8.0859 H         1 <0>         0.0691
     48 H12        -0.4704   -2.7134    8.0363 H         1 <0>         0.0721
     49 H13        -1.3129   -4.4822    6.5164 H         1 <0>         0.0810
     50 H14         0.2765   -5.2819    6.5661 H         1 <0>         0.0798
     51 H15         0.0540   -5.5718    9.0186 H         1 <0>         0.0473
     52 H16        -1.5354   -4.7721    8.9690 H         1 <0>         0.0484
     53 H17        -1.7313   -7.1497    8.8493 H         1 <0>         0.3838
     54 H18         0.0566   -5.5040    2.4094 H         1 <0>         0.1343
     55 H19         0.6224   -7.2591    4.0159 H         1 <0>         0.1415
     56 H20         4.4880   -5.4843    4.5931 H         1 <0>         0.1280
     57 H21         3.9255   -3.7348    2.9793 H         1 <0>         0.1325
     58 H22         4.7850   -6.8509    5.7719 H         1 <0>         0.4000
     59 H23         3.7733   -8.5714    7.7702 H         1 <0>         0.0733
     60 H24         4.4283   -9.5693    6.4497 H         1 <0>         0.0716
     61 H25         6.2252   -7.3280    7.4962 H         1 <0>         0.1099
     62 H26         6.6314  -10.2988    6.5762 H         1 <0>         0.0978
     63 H27         7.9699   -9.0959    6.9799 H         1 <0>         0.0971
     64 H28         7.0541   -8.8670    9.3343 H         1 <0>         0.0990
     65 H29         5.7157  -10.0699    8.9306 H         1 <0>         0.0987
@<TRIPOS>BOND
     1    1    6 ar
     2    1    2 ar
     3    1   37 1
     4    2    3 ar
     5    2   38 1
     6    3    4 ar
     7    3   39 1
     8    4    5 ar
     9    4   36 1
    10    5    6 ar
    11    5    7 1
    12    6   40 1
    13    7   11 1
    14    7    8 2
    15    8    9 1
    16    8   41 1
    17    9   10 1
    18   10   11 2
    19   10   23 1
    20   11   12 1
    21   12   13 1
    22   12   42 1
    23   12   43 1
    24   13   14 2
    25   13   15 1
    26   15   16 2
    27   16   17 1
    28   16   18 1
    29   17   44 1
    30   17   45 1
    31   18   19 1
    32   18   46 1
    33   19   20 1
    34   19   47 1
    35   19   48 1
    36   20   21 1
    37   20   49 1
    38   20   50 1
    39   21   22 1
    40   21   51 1
    41   21   52 1
    42   22   53 1
    43   23   28 ar
    44   23   24 ar
    45   24   25 ar
    46   24   54 1
    47   25   26 ar
    48   25   55 1
    49   26   27 ar
    50   26   29 1
    51   27   28 ar
    52   27   56 1
    53   28   57 1
    54   29   30 2
    55   29   31 am
    56   31   32 1
    57   31   58 1
    58   32   33 1
    59   32   59 1
    60   32   60 1
    61   33   35 1
    62   33   34 1
    63   33   61 1
    64   34   35 1
    65   34   62 1
    66   34   63 1
    67   35   64 1
    68   35   65 1
@<TRIPOS>MOLECULE
CHEMBL583178
   57    59     0     0     0
SMALL
USER_CHARGES

@<TRIPOS>ATOM
      1 C1          0.2859    1.2744    0.3086 C.3       1 <0>         0.0598
      2 N1          0.2566   -0.1809    0.1427 N.am      1 <0>        -0.5596
      3 C2         -0.8590   -0.9315    0.2115 C.2       1 <0>         0.5434
      4 O1         -1.9872   -0.5368    0.4157 O.2       1 <0>        -0.4021
      5 C3         -0.4287   -2.3647   -0.0168 C.3       1 <0>         0.1260
      6 N2          1.0280   -2.2828   -0.2118 N.pl3     1 <0>        -0.6597
      7 C4          1.3630   -0.9552   -0.1089 C.cat     1 <0>         0.7250
      8 N3          2.5730   -0.4907   -0.2308 N.pl3     1 <0>        -0.7390
      9 C5         -0.7568   -3.2227    1.2067 C.3       1 <0>        -0.1238
     10 C6         -0.0343   -2.6603    2.4326 C.3       1 <0>        -0.1234
     11 C7         -0.3625   -3.5183    3.6561 C.3       1 <0>        -0.0844
     12 C8         -1.8540   -3.4009    3.9761 C.3       1 <0>        -0.1176
     13 C9         -2.1821   -4.2589    5.1997 C.3       1 <0>        -0.1220
     14 C10        -1.3637   -3.7731    6.3976 C.3       1 <0>        -0.1233
     15 C11         0.1278   -3.8904    6.0776 C.3       1 <0>        -0.1217
     16 C12         0.4560   -3.0324    4.8540 C.3       1 <0>        -0.1132
     17 C13        -1.1041   -2.9330   -1.2665 C.3       1 <0>        -0.1205
     18 C14        -0.5778   -2.2063   -2.5058 C.3       1 <0>        -0.0947
     19 C15        -1.0928   -0.7656   -2.5093 C.3       1 <0>        -0.1337
     20 C16        -0.5666   -0.0389   -3.7487 C.3       1 <0>        -0.1155
     21 C17        -1.0552   -0.7583   -5.0075 C.3       1 <0>        -0.1245
     22 C18        -0.5402   -2.1990   -5.0040 C.3       1 <0>        -0.1209
     23 C19        -1.0664   -2.9257   -3.7647 C.3       1 <0>        -0.1136
     24 H1          1.3101    1.6317    0.2017 H         1 <0>         0.0973
     25 H2         -0.3423    1.7394   -0.4512 H         1 <0>         0.1084
     26 H3         -0.0883    1.5348    1.2986 H         1 <0>         0.1088
     27 H4          1.6325   -3.0218   -0.3833 H         1 <0>         0.4617
     28 H5          2.7383    0.4610   -0.1432 H         1 <0>         0.4465
     29 H6         -1.8326   -3.2099    1.3815 H         1 <0>         0.1118
     30 H7         -0.4294   -4.2473    1.0303 H         1 <0>         0.1038
     31 H8          1.0415   -2.6730    2.2578 H         1 <0>         0.0629
     32 H9         -0.3617   -1.6357    2.6089 H         1 <0>         0.0604
     33 H10        -0.1167   -4.5593    3.4464 H         1 <0>         0.0775
     34 H11        -2.0998   -2.3599    4.1859 H         1 <0>         0.0623
     35 H12        -2.4371   -3.7471    3.1227 H         1 <0>         0.0637
     36 H13        -3.2447   -4.1753    5.4277 H         1 <0>         0.0656
     37 H14        -1.9364   -5.2999    4.9899 H         1 <0>         0.0636
     38 H15        -1.6095   -2.7320    6.6074 H         1 <0>         0.0616
     39 H16        -1.5975   -4.3843    7.2693 H         1 <0>         0.0654
     40 H17         0.7109   -3.5443    6.9310 H         1 <0>         0.0647
     41 H18         0.3736   -4.9315    5.8678 H         1 <0>         0.0635
     42 H19         1.5186   -3.1161    4.6260 H         1 <0>         0.0592
     43 H20         0.2102   -1.9914    5.0638 H         1 <0>         0.0607
     44 H21        -0.8819   -3.9970   -1.3475 H         1 <0>         0.1050
     45 H22        -2.1824   -2.7916   -1.1929 H         1 <0>         0.1091
     46 H23         0.5120   -2.2026   -2.4894 H         1 <0>         0.0694
     47 H24        -2.1827   -0.7694   -2.5258 H         1 <0>         0.0782
     48 H25        -0.7448   -0.2531   -1.6125 H         1 <0>         0.0462
     49 H26        -0.9335    0.9875   -3.7512 H         1 <0>         0.0669
     50 H27         0.5233   -0.0352   -3.7322 H         1 <0>         0.0564
     51 H28        -2.1450   -0.7620   -5.0240 H         1 <0>         0.0672
     52 H29        -0.6803   -0.2406   -5.8904 H         1 <0>         0.0680
     53 H30        -0.8883   -2.7114   -5.9008 H         1 <0>         0.0708
     54 H31         0.5497   -2.1952   -4.9876 H         1 <0>         0.0603
     55 H32        -0.6995   -3.9521   -3.7622 H         1 <0>         0.0697
     56 H33        -2.1563   -2.9294   -3.7811 H         1 <0>         0.0714
     57 H34         3.3093   -1.0965   -0.4091 H         1 <0>         0.4509
@<TRIPOS>BOND
     1    1    2 1
     2    1   24 1
     3    1   25 1
     4    1   26 1
     5    2    7 1
     6    2    3 am
     7    3    4 2
     8    3    5 1
     9    5    6 1
    10    5    9 1
    11    5   17 1
    12    6    7 1
    13    6   27 1
    14    7    8 2
    15    8   28 1
    16    8   57 1
    17    9   10 1
    18    9   29 1
    19    9   30 1
    20   10   11 1
    21   10   31 1
    22   10   32 1
    23   11   16 1
    24   11   12 1
    25   11   33 1
    26   12   13 1
    27   12   34 1
    28   12   35 1
    29   13   14 1
    30   13   36 1
    31   13   37 1
    32   14   15 1
    33   14   38 1
    34   14   39 1
    35   15   16 1
    36   15   40 1
    37   15   41 1
    38   16   42 1
    39   16   43 1
    40   17   18 1
    41   17   44 1
    42   17   45 1
    43   18   23 1
    44   18   19 1
    45   18   46 1
    46   19   20 1
    47   19   47 1
    48   19   48 1
    49   20   21 1
    50   20   49 1
    51   20   50 1
    52   21   22 1
    53   21   51 1
    54   21   52 1
    55   22   23 1
    56   22   53 1
    57   22   54 1
    58   23   55 1
    59   23   56 1
@<TRIPOS>MOLECULE
CHEMBL1210432
   76    79     0     0     0
SMALL
USER_CHARGES

@<TRIPOS>ATOM
      1 C1          3.4700    0.7165   -1.5671 C.3       1 <0>        -0.6701
      2 S1          1.7533    1.0389   -1.0773 S.o2      1 <0>         2.5902
      3 O1          1.6833    1.3007    0.3176 O.2       1 <0>        -0.9317
      4 O2          1.1342    1.9135   -2.0106 O.2       1 <0>        -0.9360
      5 N1          0.9752   -0.4095   -1.2751 N.pl3     1 <0>        -0.8964
      6 C2          1.0123   -1.3669   -0.2583 C.ar      1 <0>         0.1129
      7 C3          0.4729   -1.0789    0.9892 C.ar      1 <0>        -0.0970
      8 C4          0.5109   -2.0278    1.9918 C.ar      1 <0>        -0.1068
      9 C5          1.0852   -3.2634    1.7553 C.ar      1 <0>        -0.1066
     10 C6          1.6230   -3.5534    0.5147 C.ar      1 <0>        -0.1123
     11 C7          1.5834   -2.6112   -0.4942 C.ar      1 <0>        -0.1115
     12 C8          0.2815   -0.6740   -2.4590 C.ar      1 <0>         0.1518
     13 C9         -1.0752   -0.9754   -2.4174 C.ar      1 <0>        -0.0809
     14 C10        -1.7656   -1.2378   -3.5855 C.ar      1 <0>        -0.1045
     15 C11        -1.1131   -1.2024   -4.8013 C.ar      1 <0>        -0.0901
     16 C12         0.2489   -0.9013   -4.8540 C.ar      1 <0>        -0.1189
     17 C13         0.9447   -0.6304   -3.6758 C.ar      1 <0>        -0.0730
     18 C14         0.9503   -0.8632   -6.1552 C.2       1 <0>         0.5665
     19 O3          2.1363   -0.6008   -6.1988 O.2       1 <0>        -0.5043
     20 N2          0.2745   -1.1196   -7.2927 N.am      1 <0>        -0.7239
     21 C15         0.9694   -1.0819   -8.5819 C.3       1 <0>         0.1276
     22 H1          1.7310   -0.3023   -8.5614 H         1 <0>         0.1101
     23 C16         1.6322   -2.4357   -8.8437 C.3       1 <0>        -0.1023
     24 C17         2.7092   -2.6747   -7.8171 C.ar      1 <0>        -0.0781
     25 C18         4.0019   -2.2492   -8.0596 C.ar      1 <0>        -0.1060
     26 C19         4.9899   -2.4683   -7.1179 C.ar      1 <0>        -0.1110
     27 C20         4.6850   -3.1126   -5.9335 C.ar      1 <0>        -0.1116
     28 C21         3.3922   -3.5373   -5.6906 C.ar      1 <0>        -0.1100
     29 C22         2.4033   -3.3143   -6.6304 C.ar      1 <0>        -0.1055
     30 C23        -0.0368   -0.7828   -9.6951 C.3       1 <0>         0.0757
     31 H2         -0.5724    0.1377   -9.4630 H         1 <0>         0.1341
     32 C24         0.7054   -0.6200  -11.0231 C.3       1 <0>        -0.0498
     33 N3         -0.2443   -0.2155  -12.0683 N.4       1 <0>        -0.5025
     34 C25         0.4683   -0.0592  -13.3434 C.3       1 <0>         0.0250
     35 C26         1.4647    1.0966  -13.2325 C.3       1 <0>        -0.1422
     36 C27         2.2068    1.2593  -14.5605 C.3       1 <0>        -0.1179
     37 C28         1.2007    1.5584  -15.6737 C.3       1 <0>        -0.1325
     38 C29         0.2043    0.4026  -15.7846 C.3       1 <0>        -0.1177
     39 C30        -0.5378    0.2398  -14.4566 C.3       1 <0>        -0.1407
     40 O4         -0.9674   -1.8623   -9.7986 O.3       1 <0>        -0.5492
     41 H3          3.8470   -0.1488   -1.0218 H         1 <0>         0.1338
     42 H4          3.5110    0.5173   -2.6379 H         1 <0>         0.1307
     43 H5          4.0835    1.5872   -1.3357 H         1 <0>         0.1373
     44 H6          0.0249   -0.1139    1.1748 H         1 <0>         0.1375
     45 H7          0.0918   -1.8046    2.9618 H         1 <0>         0.1332
     46 H8          1.1142   -4.0034    2.5414 H         1 <0>         0.1297
     47 H9          2.0711   -4.5192    0.3335 H         1 <0>         0.1297
     48 H10         1.9995   -2.8400   -1.4642 H         1 <0>         0.1258
     49 H11        -1.5912   -1.0050   -1.4690 H         1 <0>         0.1370
     50 H12        -2.8193   -1.4717   -3.5468 H         1 <0>         0.1393
     51 H13        -1.6562   -1.4081   -5.7118 H         1 <0>         0.1283
     52 H14         1.9975   -0.3920   -3.7109 H         1 <0>         0.1349
     53 H15        -0.6720   -1.3290   -7.2579 H         1 <0>         0.4068
     54 H16         0.8842   -3.2256   -8.7762 H         1 <0>         0.0826
     55 H17         2.0735   -2.4375   -9.8404 H         1 <0>         0.0794
     56 H18         4.2401   -1.7458   -8.9850 H         1 <0>         0.1120
     57 H19         6.0000   -2.1365   -7.3077 H         1 <0>         0.1196
     58 H20         5.4570   -3.2845   -5.1980 H         1 <0>         0.1197
     59 H21         3.1541   -4.0410   -4.7653 H         1 <0>         0.1176
     60 H22         1.3924   -3.6428   -6.4391 H         1 <0>         0.1112
     61 H23         1.4762    0.1434  -10.9173 H         1 <0>         0.1478
     62 H24         1.1679   -1.5676  -11.2993 H         1 <0>         0.1413
     63 H25        -0.9578   -0.9222  -12.1662 H         1 <0>         0.4324
     64 H26         1.0040   -0.9797  -13.5755 H         1 <0>         0.1393
     65 H27         0.9290    2.0170  -13.0004 H         1 <0>         0.0882
     66 H28         2.1815    0.8835  -12.4394 H         1 <0>         0.0864
     67 H29         2.9166    2.0827  -14.4815 H         1 <0>         0.0853
     68 H30         2.7425    0.3388  -14.7926 H         1 <0>         0.0747
     69 H31         0.6650    2.4789  -15.4416 H         1 <0>         0.0707
     70 H32         1.7294    1.6744  -16.6198 H         1 <0>         0.0800
     71 H33        -0.5125    0.6156  -16.5776 H         1 <0>         0.0858
     72 H34         0.7400   -0.5179  -16.0167 H         1 <0>         0.0747
     73 H35        -1.2477   -0.5836  -14.5356 H         1 <0>         0.0882
     74 H36        -1.0735    1.1603  -14.2245 H         1 <0>         0.0878
     75 H37        -0.5596   -2.7148  -10.0040 H         1 <0>         0.3915
     76 H38        -0.6724    0.6616  -11.8126 H         1 <0>         0.4271
@<TRIPOS>BOND
     1    1    2 1
     2    1   41 1
     3    1   42 1
     4    1   43 1
     5    2    3 2
     6    2    4 2
     7    2    5 1
     8    5    6 1
     9    5   12 1
    10    6   11 ar
    11    6    7 ar
    12    7    8 ar
    13    7   44 1
    14    8    9 ar
    15    8   45 1
    16    9   10 ar
    17    9   46 1
    18   10   11 ar
    19   10   47 1
    20   11   48 1
    21   12   17 ar
    22   12   13 ar
    23   13   14 ar
    24   13   49 1
    25   14   15 ar
    26   14   50 1
    27   15   16 ar
    28   15   51 1
    29   16   17 ar
    30   16   18 1
    31   17   52 1
    32   18   19 2
    33   18   20 am
    34   20   21 1
    35   20   53 1
    36   21   22 1
    37   21   23 1
    38   21   30 1
    39   23   24 1
    40   23   54 1
    41   23   55 1
    42   24   29 ar
    43   24   25 ar
    44   25   26 ar
    45   25   56 1
    46   26   27 ar
    47   26   57 1
    48   27   28 ar
    49   27   58 1
    50   28   29 ar
    51   28   59 1
    52   29   60 1
    53   30   31 1
    54   30   32 1
    55   30   40 1
    56   32   33 1
    57   32   61 1
    58   32   62 1
    59   33   34 1
    60   33   63 1
    61   33   76 1
    62   34   39 1
    63   34   35 1
    64   34   64 1
    65   35   36 1
    66   35   65 1
    67   35   66 1
    68   36   37 1
    69   36   67 1
    70   36   68 1
    71   37   38 1
    72   37   69 1
    73   37   70 1
    74   38   39 1
    75   38   71 1
    76   38   72 1
    77   39   73 1
    78   39   74 1
    79   40   75 1
@<TRIPOS>MOLECULE
CHEMBL237063
   62    64     0     0     0
SMALL
USER_CHARGES

@<TRIPOS>ATOM
      1 C1         -0.2065   -1.3819    2.1470 C.3       1 <0>        -0.1515
      2 C2         -0.4799   -0.9855    0.6948 C.3       1 <0>        -0.1254
      3 C3          0.3882   -1.8331   -0.2373 C.3       1 <0>         0.0572
      4 O1          0.1328   -1.4629   -1.5937 O.3       1 <0>        -0.3106
      5 C4          0.8278   -2.1254   -2.5554 C.ar      1 <0>         0.1496
      6 C5          1.7326   -3.1158   -2.1976 C.ar      1 <0>        -0.2077
      7 C6          2.4399   -3.7901   -3.1703 C.ar      1 <0>        -0.0624
      8 C7          2.2450   -3.4761   -4.5162 C.ar      1 <0>        -0.0635
      9 C8          1.3342   -2.4801   -4.8719 C.ar      1 <0>        -0.0522
     10 C9          0.6269   -1.8141   -3.8935 C.ar      1 <0>        -0.1472
     11 C10         3.0019   -4.1963   -5.5626 C.2       1 <0>        -0.0769
     12 C11         3.1780   -5.5415   -5.7216 C.2       1 <0>        -0.1029
     13 C12         3.9379   -5.9929   -6.7916 C.2       1 <0>        -0.0776
     14 C13         4.4810   -5.0718   -7.6454 C.2       1 <0>        -0.1542
     15 S1          3.9129   -3.5312   -6.9457 S.3       1 <0>         0.1115
     16 C14         4.1574   -7.4449   -7.0051 C.ar      1 <0>        -0.0276
     17 C15         3.6077   -8.0792   -8.1174 C.ar      1 <0>        -0.0959
     18 C16         3.8149   -9.4298   -8.3111 C.ar      1 <0>        -0.1126
     19 C17         4.5668  -10.1546   -7.4038 C.ar      1 <0>        -0.1033
     20 C18         5.1152   -9.5312   -6.2978 C.ar      1 <0>        -0.1071
     21 C19         4.9193   -8.1786   -6.0966 C.ar      1 <0>        -0.0371
     22 Cl1         5.6145   -7.3953   -4.7121 Cl        1 <0>        -0.0529
     23 C20         2.5594   -6.5167   -4.7535 C.3       1 <0>        -0.0871
     24 C21         1.2284   -6.9792   -5.2880 C.2       1 <0>         0.5373
     25 O2          0.7782   -6.4883   -6.3011 O.2       1 <0>        -0.4621
     26 N1          0.5385   -7.9386   -4.6397 N.am      1 <0>        -0.6638
     27 C22        -0.6233   -8.4450   -5.1896 C.cat     1 <0>         0.7316
     28 N2         -1.3588   -9.2746   -4.5071 N.pl3     1 <0>        -0.7592
     29 N3         -1.0027   -8.0731   -6.4572 N.pl3     1 <0>        -0.6566
     30 C23        -2.2994   -8.5002   -6.9887 C.3       1 <0>         0.0845
     31 C24        -2.4734   -7.9554   -8.4077 C.3       1 <0>        -0.1361
     32 C25        -3.8277   -8.4014   -8.9628 C.3       1 <0>         0.0807
     33 O3         -3.9902   -7.8926  -10.2882 O.3       1 <0>        -0.5700
     34 H1         -0.4453   -2.4362    2.2870 H         1 <0>         0.0570
     35 H2          0.8455   -1.2139    2.3776 H         1 <0>         0.0594
     36 H3         -0.8250   -0.7780    2.8111 H         1 <0>         0.0687
     37 H4         -1.5319   -1.1535    0.4642 H         1 <0>         0.0744
     38 H5         -0.2411    0.0688    0.5548 H         1 <0>         0.0769
     39 H6          1.4402   -1.6651   -0.0068 H         1 <0>         0.0665
     40 H7          0.1494   -2.8874   -0.0974 H         1 <0>         0.0626
     41 H8          1.8828   -3.3582   -1.1559 H         1 <0>         0.1357
     42 H9          3.1441   -4.5599   -2.8911 H         1 <0>         0.1303
     43 H10         1.1806   -2.2343   -5.9123 H         1 <0>         0.1350
     44 H11        -0.0813   -1.0463   -4.1681 H         1 <0>         0.1395
     45 H12         5.0924   -5.2351   -8.5206 H         1 <0>         0.1924
     46 H13         3.0202   -7.5149   -8.8265 H         1 <0>         0.1340
     47 H14         3.3888   -9.9221   -9.1728 H         1 <0>         0.1330
     48 H15         4.7258  -11.2114   -7.5596 H         1 <0>         0.1363
     49 H16         5.7010  -10.1019   -5.5925 H         1 <0>         0.1392
     50 H17         3.2198   -7.3751   -4.6307 H         1 <0>         0.1242
     51 H18         2.4142   -6.0291   -3.7895 H         1 <0>         0.1277
     52 H19        -2.1336   -9.6878   -4.9191 H         1 <0>         0.4449
     53 H20        -0.4119   -7.5279   -7.0000 H         1 <0>         0.4470
     54 H21        -2.3426   -9.5891   -7.0097 H         1 <0>         0.0955
     55 H22        -3.0970   -8.1171   -6.3520 H         1 <0>         0.0995
     56 H23        -2.4302   -6.8665   -8.3867 H         1 <0>         0.0913
     57 H24        -1.6759   -8.3385   -9.0443 H         1 <0>         0.0890
     58 H25        -3.8709   -9.4903   -8.9838 H         1 <0>         0.0533
     59 H26        -4.6252   -8.0183   -8.3261 H         1 <0>         0.0536
     60 H27        -4.8288   -8.1369  -10.7032 H         1 <0>         0.3935
     61 H28         0.8577   -8.2734   -3.7872 H         1 <0>         0.4459
     62 H29        -1.1319   -9.4794   -3.5865 H         1 <0>         0.4448
@<TRIPOS>BOND
     1    1    2 1
     2    1   34 1
     3    1   35 1
     4    1   36 1
     5    2    3 1
     6    2   37 1
     7    2   38 1
     8    3    4 1
     9    3   39 1
    10    3   40 1
    11    4    5 1
    12    5   10 ar
    13    5    6 ar
    14    6    7 ar
    15    6   41 1
    16    7    8 ar
    17    7   42 1
    18    8    9 ar
    19    8   11 1
    20    9   10 ar
    21    9   43 1
    22   10   44 1
    23   11   15 1
    24   11   12 2
    25   12   13 1
    26   12   23 1
    27   13   14 2
    28   13   16 1
    29   14   15 1
    30   14   45 1
    31   16   21 ar
    32   16   17 ar
    33   17   18 ar
    34   17   46 1
    35   18   19 ar
    36   18   47 1
    37   19   20 ar
    38   19   48 1
    39   20   21 ar
    40   20   49 1
    41   21   22 1
    42   23   24 1
    43   23   50 1
    44   23   51 1
    45   24   26 am
    46   24   25 2
    47   26   27 1
    48   26   61 1
    49   27   28 2
    50   27   29 1
    51   28   52 1
    52   28   62 1
    53   29   30 1
    54   29   53 1
    55   30   31 1
    56   30   54 1
    57   30   55 1
    58   31   32 1
    59   31   56 1
    60   31   57 1
    61   32   33 1
    62   32   58 1
    63   32   59 1
    64   33   60 1
@<TRIPOS>MOLECULE
CHEMBL237063__1
   61    63     0     0     0
SMALL
USER_CHARGES

@<TRIPOS>ATOM
      1 C1          0.3315   -0.1048    0.4897 C.3       1 <0>        -0.1511
      2 C2         -0.7857   -0.1791    1.5323 C.3       1 <0>        -0.1237
      3 C3         -1.8412   -1.1892    1.0777 C.3       1 <0>         0.0571
      4 O1         -2.8847   -1.2586    2.0516 O.3       1 <0>        -0.3137
      5 C4         -3.9086   -2.1157    1.7987 C.ar      1 <0>         0.1383
      6 C5         -3.9031   -2.8776    0.6380 C.ar      1 <0>        -0.2053
      7 C6         -4.9402   -3.7479    0.3776 C.ar      1 <0>        -0.0596
      8 C7         -5.9964   -3.8628    1.2829 C.ar      1 <0>        -0.0420
      9 C8         -5.9980   -3.0954    2.4487 C.ar      1 <0>        -0.0586
     10 C9         -4.9545   -2.2312    2.7044 C.ar      1 <0>        -0.1490
     11 C10        -7.1109   -4.7946    1.0072 C.2       1 <0>        -0.1009
     12 C11        -7.0592   -6.1084    0.6373 C.2       1 <0>        -0.0670
     13 C12        -8.2500   -6.7909    0.4311 C.2       1 <0>        -0.0690
     14 C13        -9.4295   -6.1198    0.6068 C.2       1 <0>        -0.1619
     15 S1         -8.8685   -4.4929    1.0803 S.3       1 <0>         0.0678
     16 C14        -8.2441   -8.2189    0.0279 C.ar      1 <0>        -0.0190
     17 C15        -8.7357   -9.1925    0.8951 C.ar      1 <0>        -0.0877
     18 C16        -8.7279  -10.5192    0.5151 C.ar      1 <0>        -0.1122
     19 C17        -8.2333  -10.8841   -0.7243 C.ar      1 <0>        -0.1057
     20 C18        -7.7440   -9.9228   -1.5898 C.ar      1 <0>        -0.1089
     21 C19        -7.7520   -8.5911   -1.2225 C.ar      1 <0>        -0.0274
     22 Cl1        -7.1447   -7.3843   -2.3127 Cl        1 <0>        -0.0620
     23 C20        -5.7345   -6.8035    0.4559 C.3       1 <0>        -0.0937
     24 C21        -5.3290   -7.4579    1.7515 C.2       1 <0>         0.5212
     25 O2         -6.0021   -7.2963    2.7506 O.2       1 <0>        -0.5362
     26 N1         -4.2335   -8.2129    1.8017 N.2       1 <0>        -0.7011
     27 C22        -3.3062   -7.9765    2.7210 C.2       1 <0>         0.6996
     28 N2         -3.4097   -6.8833    3.5274 N.pl3     1 <0>        -0.8612
     29 N3         -2.2508   -8.8268    2.8585 N.pl3     1 <0>        -0.7042
     30 C23        -1.2271   -8.5658    3.8734 C.3       1 <0>         0.1147
     31 C24        -0.1623   -9.6630    3.8178 C.3       1 <0>        -0.1329
     32 C25         0.9068   -9.3904    4.8777 C.3       1 <0>         0.0796
     33 O3          1.9013  -10.4152    4.8258 O.3       1 <0>        -0.5731
     34 H1          1.0835    0.6148    0.8135 H         1 <0>         0.0661
     35 H2          0.7918   -1.0867    0.3797 H         1 <0>         0.0576
     36 H3         -0.0848    0.2105   -0.4671 H         1 <0>         0.0584
     37 H4         -0.3694   -0.4944    2.4891 H         1 <0>         0.0735
     38 H5         -1.2460    0.8028    1.6422 H         1 <0>         0.0746
     39 H6         -2.2575   -0.8739    0.1210 H         1 <0>         0.0639
     40 H7         -1.3809   -2.1711    0.9678 H         1 <0>         0.0623
     41 H8         -3.0855   -2.7881   -0.0619 H         1 <0>         0.1317
     42 H9         -4.9356   -4.3397   -0.5258 H         1 <0>         0.1296
     43 H10        -6.8134   -3.1815    3.1517 H         1 <0>         0.1335
     44 H11        -4.9528   -1.6403    3.6084 H         1 <0>         0.1356
     45 H12       -10.4403   -6.4827    0.4928 H         1 <0>         0.1876
     46 H13        -9.1218   -8.9094    1.8632 H         1 <0>         0.1312
     47 H14        -9.1084  -11.2744    1.1870 H         1 <0>         0.1299
     48 H15        -8.2290  -11.9236   -1.0170 H         1 <0>         0.1324
     49 H16        -7.3587  -10.2133   -2.5560 H         1 <0>         0.1349
     50 H17        -5.8256   -7.5622   -0.3213 H         1 <0>         0.1058
     51 H18        -4.9783   -6.0743    0.1650 H         1 <0>         0.0983
     52 H19        -4.1753   -6.2931    3.4483 H         1 <0>         0.4212
     53 H20        -2.7177   -6.6952    4.1806 H         1 <0>         0.3991
     54 H21        -2.1772   -9.6052    2.2843 H         1 <0>         0.4252
     55 H22        -0.7627   -7.5987    3.6806 H         1 <0>         0.0712
     56 H23        -1.6885   -8.5569    4.8609 H         1 <0>         0.0727
     57 H24        -0.6268  -10.6301    4.0105 H         1 <0>         0.0831
     58 H25         0.2990   -9.6719    2.8303 H         1 <0>         0.0828
     59 H26         1.3712   -8.4233    4.6850 H         1 <0>         0.0500
     60 H27         0.4455   -9.3815    5.8652 H         1 <0>         0.0504
     61 H28         2.6124  -10.3063    5.4720 H         1 <0>         0.3858
@<TRIPOS>BOND
     1    1    2 1
     2    1   34 1
     3    1   35 1
     4    1   36 1
     5    2    3 1
     6    2   37 1
     7    2   38 1
     8    3    4 1
     9    3   39 1
    10    3   40 1
    11    4    5 1
    12    5   10 ar
    13    5    6 ar
    14    6    7 ar
    15    6   41 1
    16    7    8 ar
    17    7   42 1
    18    8    9 ar
    19    8   11 1
    20    9   10 ar
    21    9   43 1
    22   10   44 1
    23   11   15 1
    24   11   12 2
    25   12   13 1
    26   12   23 1
    27   13   14 2
    28   13   16 1
    29   14   15 1
    30   14   45 1
    31   16   21 ar
    32   16   17 ar
    33   17   18 ar
    34   17   46 1
    35   18   19 ar
    36   18   47 1
    37   19   20 ar
    38   19   48 1
    39   20   21 ar
    40   20   49 1
    41   21   22 1
    42   23   24 1
    43   23   50 1
    44   23   51 1
    45   24   25 2
    46   24   26 1
    47   26   27 2
    48   27   28 1
    49   27   29 1
    50   28   52 1
    51   28   53 1
    52   29   30 1
    53   29   54 1
    54   30   31 1
    55   30   55 1
    56   30   56 1
    57   31   32 1
    58   31   57 1
    59   31   58 1
    60   32   33 1
    61   32   59 1
    62   32   60 1
    63   33   61 1
@<TRIPOS>MOLECULE
CHEMBL237063__2
   61    63     0     0     0
SMALL
USER_CHARGES

@<TRIPOS>ATOM
      1 C1          0.3608   -0.1179    0.5030 C.3       1 <0>        -0.1508
      2 C2         -0.7594   -0.1892    1.5427 C.3       1 <0>        -0.1237
      3 C3         -1.8169   -1.1957    1.0848 C.3       1 <0>         0.0575
      4 O1         -2.8632   -1.2623    2.0559 O.3       1 <0>        -0.3124
      5 C4         -3.8891   -2.1160    1.7998 C.ar      1 <0>         0.1393
      6 C5         -3.8830   -2.8773    0.6388 C.ar      1 <0>        -0.2059
      7 C6         -4.9223   -3.7442    0.3752 C.ar      1 <0>        -0.0600
      8 C7         -5.9811   -3.8561    1.2776 C.ar      1 <0>        -0.0428
      9 C8         -5.9833   -3.0894    2.4439 C.ar      1 <0>        -0.0583
     10 C9         -4.9378   -2.2286    2.7027 C.ar      1 <0>        -0.1474
     11 C10        -7.0979   -4.7843    0.9985 C.2       1 <0>        -0.0997
     12 C11        -7.0494   -6.0980    0.6278 C.2       1 <0>        -0.0678
     13 C12        -8.2418   -6.7765    0.4182 C.2       1 <0>        -0.0690
     14 C13        -9.4196   -6.1019    0.5914 C.2       1 <0>        -0.1624
     15 S1         -8.8547   -4.4771    1.0674 S.3       1 <0>         0.0680
     16 C14        -8.2394   -8.2044    0.0141 C.ar      1 <0>        -0.0185
     17 C15        -8.7362   -9.1770    0.8795 C.ar      1 <0>        -0.0877
     18 C16        -8.7316  -10.5035    0.4986 C.ar      1 <0>        -0.1122
     19 C17        -8.2351  -10.8690   -0.7399 C.ar      1 <0>        -0.1060
     20 C18        -7.7406   -9.9088   -1.6035 C.ar      1 <0>        -0.1091
     21 C19        -7.7454   -8.5772   -1.2354 C.ar      1 <0>        -0.0275
     22 Cl1        -7.1316   -7.3717   -2.3233 Cl        1 <0>        -0.0618
     23 C20        -5.7264   -6.7972    0.4494 C.3       1 <0>        -0.0936
     24 C21        -5.3263   -7.4537    1.7455 C.2       1 <0>         0.5200
     25 O2         -6.0023   -7.2921    2.7426 O.2       1 <0>        -0.5352
     26 N1         -4.2324   -8.2108    1.7984 N.2       1 <0>        -0.7003
     27 C22        -3.3077   -7.9771    2.7210 C.2       1 <0>         0.6981
     28 N2         -2.2549   -8.8302    2.8616 N.pl3     1 <0>        -0.8258
     29 N3         -3.4111   -6.8841    3.5275 N.pl3     1 <0>        -0.7375
     30 C23        -2.3660   -6.6002    4.5141 C.3       1 <0>         0.1094
     31 C24        -2.7228   -5.3263    5.2828 C.3       1 <0>        -0.1331
     32 C25        -1.6313   -5.0299    6.3132 C.3       1 <0>         0.0820
     33 O3         -1.9645   -3.8401    7.0311 O.3       1 <0>        -0.5710
     34 H1          1.1141    0.5991    0.8292 H         1 <0>         0.0659
     35 H2          0.8182   -1.1012    0.3938 H         1 <0>         0.0573
     36 H3         -0.0520    0.1992   -0.4547 H         1 <0>         0.0583
     37 H4         -0.3466   -0.5063    2.5004 H         1 <0>         0.0736
     38 H5         -1.2169    0.7941    1.6519 H         1 <0>         0.0746
     39 H6         -2.2297   -0.8786    0.1271 H         1 <0>         0.0634
     40 H7         -1.3594   -2.1790    0.9756 H         1 <0>         0.0617
     41 H8         -3.0633   -2.7900   -0.0590 H         1 <0>         0.1313
     42 H9         -4.9172   -4.3355   -0.5285 H         1 <0>         0.1293
     43 H10        -6.8008   -3.1733    3.1446 H         1 <0>         0.1331
     44 H11        -4.9366   -1.6383    3.6071 H         1 <0>         0.1359
     45 H12       -10.4313   -6.4615    0.4746 H         1 <0>         0.1875
     46 H13        -9.1238   -8.8933    1.8468 H         1 <0>         0.1313
     47 H14        -9.1161  -11.2579    1.1690 H         1 <0>         0.1299
     48 H15        -8.2333  -11.9084   -1.0332 H         1 <0>         0.1323
     49 H16        -7.3539  -10.1998   -2.5690 H         1 <0>         0.1348
     50 H17        -5.8180   -7.5550   -0.3287 H         1 <0>         0.1057
     51 H18        -4.9672   -6.0701    0.1609 H         1 <0>         0.0982
     52 H19        -2.1812   -9.6084    2.2873 H         1 <0>         0.4245
     53 H20        -1.5789   -8.6593    3.5359 H         1 <0>         0.4087
     54 H21        -4.1767   -6.2937    3.4485 H         1 <0>         0.4223
     55 H22        -2.2875   -7.4349    5.2107 H         1 <0>         0.0715
     56 H23        -1.4127   -6.4618    4.0040 H         1 <0>         0.0706
     57 H24        -2.8012   -4.4916    4.5862 H         1 <0>         0.0803
     58 H25        -3.6761   -5.4647    5.7929 H         1 <0>         0.0813
     59 H26        -1.5529   -5.8646    7.0097 H         1 <0>         0.0493
     60 H27        -0.6780   -4.8915    5.8031 H         1 <0>         0.0486
     61 H28        -1.3150   -3.5911    7.7029 H         1 <0>         0.3842
@<TRIPOS>BOND
     1    1    2 1
     2    1   34 1
     3    1   35 1
     4    1   36 1
     5    2    3 1
     6    2   37 1
     7    2   38 1
     8    3    4 1
     9    3   39 1
    10    3   40 1
    11    4    5 1
    12    5   10 ar
    13    5    6 ar
    14    6    7 ar
    15    6   41 1
    16    7    8 ar
    17    7   42 1
    18    8    9 ar
    19    8   11 1
    20    9   10 ar
    21    9   43 1
    22   10   44 1
    23   11   15 1
    24   11   12 2
    25   12   13 1
    26   12   23 1
    27   13   14 2
    28   13   16 1
    29   14   15 1
    30   14   45 1
    31   16   21 ar
    32   16   17 ar
    33   17   18 ar
    34   17   46 1
    35   18   19 ar
    36   18   47 1
    37   19   20 ar
    38   19   48 1
    39   20   21 ar
    40   20   49 1
    41   21   22 1
    42   23   24 1
    43   23   50 1
    44   23   51 1
    45   24   25 2
    46   24   26 1
    47   26   27 2
    48   27   28 1
    49   27   29 1
    50   28   52 1
    51   28   53 1
    52   29   30 1
    53   29   54 1
    54   30   31 1
    55   30   55 1
    56   30   56 1
    57   31   32 1
    58   31   57 1
    59   31   58 1
    60   32   33 1
    61   32   59 1
    62   32   60 1
    63   33   61 1
@<TRIPOS>MOLECULE
CHEMBL474057
   80    84     0     0     0
SMALL
USER_CHARGES

@<TRIPOS>ATOM
      1 C1         -0.5455    0.8711    0.0573 C.3       1 <0>        -0.1594
      2 C2          0.0729   -0.4961   -0.2415 C.3       1 <0>         0.1845
      3 H1          0.7741   -0.4043   -1.0710 H         1 <0>         0.1003
      4 C3         -1.0161   -1.4705   -0.6098 C.ar      1 <0>        -0.0961
      5 C4         -1.7768   -2.0635    0.3805 C.ar      1 <0>        -0.1154
      6 C5         -2.7758   -2.9573    0.0426 C.ar      1 <0>        -0.1148
      7 C6         -3.0144   -3.2576   -1.2854 C.ar      1 <0>        -0.1159
      8 C7         -2.2543   -2.6639   -2.2757 C.ar      1 <0>        -0.1130
      9 C8         -1.2582   -1.7669   -1.9381 C.ar      1 <0>        -0.1056
     10 N1          0.7815   -0.9814    0.9454 N.am      1 <0>        -0.7164
     11 C9          2.0538   -0.5998    1.1737 C.2       1 <0>         0.5607
     12 O1          2.6133    0.1470    0.3948 O.2       1 <0>        -0.5193
     13 C10         2.7690   -1.0897    2.3717 C.ar      1 <0>        -0.1181
     14 C11         2.0637   -1.3418    3.5439 C.ar      1 <0>        -0.0425
     15 C12         2.7403   -1.8023    4.6711 C.ar      1 <0>        -0.1280
     16 C13         4.1188   -2.0045    4.6148 C.ar      1 <0>        -0.0847
     17 C14         4.8204   -1.7507    3.4417 C.ar      1 <0>         0.1084
     18 C15         4.1534   -1.3031    2.3187 C.ar      1 <0>        -0.0407
     19 C16         4.8638   -1.0304    1.0180 C.3       1 <0>        -0.0900
     20 C17         6.0877   -1.9330    0.8669 C.3       1 <0>        -0.1238
     21 C18         7.3058   -1.2207    1.4704 C.3       1 <0>        -0.1523
     22 C19         7.0022   -0.9237    2.9435 C.3       1 <0>         0.0624
     23 O2          6.1625   -1.9586    3.4411 O.3       1 <0>        -0.3185
     24 C20         2.0000   -2.0751    5.9218 C.2       1 <0>         0.5692
     25 O3          0.7984   -1.8975    5.9679 O.2       1 <0>        -0.5018
     26 N2          2.6576   -2.5206    7.0106 N.am      1 <0>        -0.7244
     27 C21         1.9243   -2.7909    8.2497 C.3       1 <0>         0.1284
     28 H2          1.1136   -2.0701    8.3567 H         1 <0>         0.1106
     29 C22         1.3451   -4.2062    8.2012 C.3       1 <0>        -0.1029
     30 C23         0.3169   -4.2909    7.1028 C.ar      1 <0>        -0.0783
     31 C24        -1.0077   -4.0014    7.3722 C.ar      1 <0>        -0.1062
     32 C25        -1.9509   -4.0791    6.3646 C.ar      1 <0>        -0.1108
     33 C26        -1.5695   -4.4458    5.0876 C.ar      1 <0>        -0.1101
     34 C27        -0.2447   -4.7344    4.8180 C.ar      1 <0>        -0.1096
     35 C28         0.6992   -4.6526    5.8246 C.ar      1 <0>        -0.1059
     36 C29         2.8753   -2.6695    9.4421 C.3       1 <0>         0.0739
     37 H3          3.3554   -1.6911    9.4257 H         1 <0>         0.1333
     38 C30         2.0854   -2.8284   10.7427 C.3       1 <0>        -0.0409
     39 N3          2.9751   -2.5933   11.8878 N.4       1 <0>        -0.4745
     40 C31         2.2166   -2.7459   13.1366 C.3       1 <0>        -0.0864
     41 C32         2.0695   -1.5118   14.0290 C.3       1 <0>        -0.1539
     42 C33         2.9944   -2.6552   14.4510 C.3       1 <0>        -0.1530
     43 O4          3.8719   -3.6905    9.3623 O.3       1 <0>        -0.5494
     44 H4          0.2422    1.5758    0.3236 H         1 <0>         0.0663
     45 H5         -1.0727    1.2321   -0.8258 H         1 <0>         0.0719
     46 H6         -1.2467    0.7792    0.8868 H         1 <0>         0.0597
     47 H7         -1.5904   -1.8288    1.4180 H         1 <0>         0.1178
     48 H8         -3.3697   -3.4211    0.8163 H         1 <0>         0.1235
     49 H9         -3.7944   -3.9564   -1.5493 H         1 <0>         0.1246
     50 H10        -2.4405   -2.8988   -3.3133 H         1 <0>         0.1266
     51 H11        -0.6668   -1.3002   -2.7120 H         1 <0>         0.1259
     52 H12         0.3350   -1.5774    1.5669 H         1 <0>         0.4008
     53 H13         0.9964   -1.1809    3.5799 H         1 <0>         0.1424
     54 H14         4.6449   -2.3602    5.4884 H         1 <0>         0.1354
     55 H15         4.1788   -1.2138    0.1902 H         1 <0>         0.0940
     56 H16         5.1819    0.0118    0.9949 H         1 <0>         0.0909
     57 H17         5.9161   -2.8722    1.3930 H         1 <0>         0.0744
     58 H18         6.2670   -2.1315   -0.1897 H         1 <0>         0.0746
     59 H19         8.1822   -1.8646    1.3977 H         1 <0>         0.0761
     60 H20         7.4884   -0.2878    0.9369 H         1 <0>         0.0788
     61 H21         7.9310   -0.8972    3.5134 H         1 <0>         0.1026
     62 H22         6.4890    0.0341    3.0285 H         1 <0>         0.0627
     63 H23         3.6165   -2.6623    6.9738 H         1 <0>         0.4068
     64 H24         2.1455   -4.9197    8.0055 H         1 <0>         0.0827
     65 H25         0.8759   -4.4397    9.1570 H         1 <0>         0.0797
     66 H26        -1.3057   -3.7148    8.3699 H         1 <0>         0.1117
     67 H27        -2.9859   -3.8536    6.5753 H         1 <0>         0.1194
     68 H28        -2.3065   -4.5072    4.3005 H         1 <0>         0.1200
     69 H29         0.0532   -5.0213    3.8203 H         1 <0>         0.1181
     70 H30         1.7348   -4.8745    5.6131 H         1 <0>         0.1107
     71 H31         1.2691   -2.1063   10.7626 H         1 <0>         0.1476
     72 H32         1.6787   -3.8381   10.7998 H         1 <0>         0.1416
     73 H33         3.7307   -3.2617   11.8694 H         1 <0>         0.4334
     74 H34         1.3775   -3.4403   13.0951 H         1 <0>         0.1781
     75 H35         2.5355   -0.5868   13.6895 H         1 <0>         0.1218
     76 H36         1.1334   -1.3941   14.5748 H         1 <0>         0.1345
     77 H37         2.6668   -3.2898   15.2745 H         1 <0>         0.1349
     78 H38         4.0688   -2.4824   14.3891 H         1 <0>         0.1221
     79 H39         3.5157   -4.5894    9.3718 H         1 <0>         0.3924
     80 H40         3.3515   -1.6587   11.8349 H         1 <0>         0.4267
@<TRIPOS>BOND
     1    1    2 1
     2    1   44 1
     3    1   45 1
     4    1   46 1
     5    2    3 1
     6    2    4 1
     7    2   10 1
     8    4    9 ar
     9    4    5 ar
    10    5    6 ar
    11    5   47 1
    12    6    7 ar
    13    6   48 1
    14    7    8 ar
    15    7   49 1
    16    8    9 ar
    17    8   50 1
    18    9   51 1
    19   10   11 am
    20   10   52 1
    21   11   12 2
    22   11   13 1
    23   13   18 ar
    24   13   14 ar
    25   14   15 ar
    26   14   53 1
    27   15   16 ar
    28   15   24 1
    29   16   17 ar
    30   16   54 1
    31   17   23 1
    32   17   18 ar
    33   18   19 1
    34   19   20 1
    35   19   55 1
    36   19   56 1
    37   20   21 1
    38   20   57 1
    39   20   58 1
    40   21   22 1
    41   21   59 1
    42   21   60 1
    43   22   23 1
    44   22   61 1
    45   22   62 1
    46   24   25 2
    47   24   26 am
    48   26   27 1
    49   26   63 1
    50   27   28 1
    51   27   29 1
    52   27   36 1
    53   29   30 1
    54   29   64 1
    55   29   65 1
    56   30   35 ar
    57   30   31 ar
    58   31   32 ar
    59   31   66 1
    60   32   33 ar
    61   32   67 1
    62   33   34 ar
    63   33   68 1
    64   34   35 ar
    65   34   69 1
    66   35   70 1
    67   36   37 1
    68   36   38 1
    69   36   43 1
    70   38   39 1
    71   38   71 1
    72   38   72 1
    73   39   40 1
    74   39   73 1
    75   39   80 1
    76   40   42 1
    77   40   41 1
    78   40   74 1
    79   41   42 1
    80   41   75 1
    81   41   76 1
    82   42   77 1
    83   42   78 1
    84   43   79 1
@<TRIPOS>MOLECULE
CHEMBL463865
   75    79     0     0     0
SMALL
USER_CHARGES

@<TRIPOS>ATOM
      1 C1         -0.0184    1.5028    0.0103 C.3       1 <0>        -0.0872
      2 C2          0.0021   -0.0041    0.0020 C.2       1 <0>         0.0578
      3 C3         -1.0895   -0.7892    0.0028 C.2       1 <0>        -0.2022
      4 C4         -0.6018   -2.1668   -0.0078 C.ar      1 <0>        -0.0420
      5 C5         -1.2277   -3.4301   -0.0122 C.ar      1 <0>        -0.1065
      6 C6         -0.4473   -4.5795   -0.0230 C.ar      1 <0>        -0.0392
      7 C7          0.9458   -4.4767   -0.0293 C.ar      1 <0>        -0.1248
      8 C8          1.5649   -3.2260   -0.0245 C.ar      1 <0>        -0.0347
      9 C9          0.8011   -2.0710   -0.0143 C.ar      1 <0>         0.0352
     10 O1          1.1125   -0.7579   -0.0131 O.3       1 <0>        -0.1841
     11 C10         1.7701   -5.7015   -0.0407 C.2       1 <0>         0.5681
     12 O2          1.2360   -6.7937   -0.0445 O.2       1 <0>        -0.5310
     13 N1          3.1147   -5.6088   -0.0469 N.am      1 <0>        -0.7180
     14 C11         3.9326   -6.8242   -0.0582 C.3       1 <0>         0.1856
     15 H1          3.4341   -7.5921   -0.6497 H         1 <0>         0.1006
     16 C12         4.1202   -7.3260    1.3749 C.3       1 <0>        -0.1594
     17 C13         5.2783   -6.5184   -0.6636 C.ar      1 <0>        -0.0986
     18 C14         5.9179   -5.3304   -0.3625 C.ar      1 <0>        -0.1173
     19 C15         7.1523   -5.0499   -0.9178 C.ar      1 <0>        -0.1138
     20 C16         7.7474   -5.9575   -1.7739 C.ar      1 <0>        -0.1149
     21 C17         7.1083   -7.1459   -2.0744 C.ar      1 <0>        -0.1130
     22 C18         5.8758   -7.4283   -1.5157 C.ar      1 <0>        -0.1061
     23 C19        -2.6988   -3.5307   -0.0050 C.2       1 <0>         0.5688
     24 O3         -3.3772   -2.5216    0.0048 O.2       1 <0>        -0.4978
     25 N2         -3.2915   -4.7411   -0.0092 N.am      1 <0>        -0.7253
     26 C20        -4.7531   -4.8411   -0.0020 C.3       1 <0>         0.1294
     27 H2         -5.1698   -4.0296    0.5947 H         1 <0>         0.1103
     28 C21        -5.2781   -4.7417   -1.4356 C.3       1 <0>        -0.1030
     29 C22        -4.9749   -3.3727   -1.9879 C.ar      1 <0>        -0.0773
     30 C23        -5.8839   -2.3442   -1.8237 C.ar      1 <0>        -0.1065
     31 C24        -5.6057   -1.0885   -2.3303 C.ar      1 <0>        -0.1112
     32 C25        -4.4183   -0.8611   -3.0006 C.ar      1 <0>        -0.1106
     33 C26        -3.5089   -1.8893   -3.1639 C.ar      1 <0>        -0.1069
     34 C27        -3.7852   -3.1439   -2.6536 C.ar      1 <0>        -0.1051
     35 C28        -5.1695   -6.1839    0.6017 C.3       1 <0>         0.0734
     36 H3         -4.7215   -6.2927    1.5894 H         1 <0>         0.1334
     37 C29        -6.6936   -6.2372    0.7242 C.3       1 <0>        -0.0405
     38 N3         -7.0865   -7.4741    1.4125 N.4       1 <0>        -0.4746
     39 C30        -8.5499   -7.5254    1.5301 C.3       1 <0>        -0.0862
     40 C31        -9.1465   -7.5068    2.9389 C.3       1 <0>        -0.1541
     41 C32        -9.1675   -8.7966    2.1162 C.3       1 <0>        -0.1531
     42 O4         -4.7221   -7.2455   -0.2439 O.3       1 <0>        -0.5481
     43 H4          1.0042    1.8801    0.0026 H         1 <0>         0.0844
     44 H5         -0.5455    1.8639   -0.8728 H         1 <0>         0.0962
     45 H6         -0.5286    1.8543    0.9071 H         1 <0>         0.0962
     46 H7         -2.1201   -0.4664    0.0103 H         1 <0>         0.1708
     47 H8         -0.9174   -5.5518   -0.0260 H         1 <0>         0.1444
     48 H9          2.6428   -3.1587   -0.0292 H         1 <0>         0.1404
     49 H10         3.5408   -4.7375   -0.0439 H         1 <0>         0.4003
     50 H11         4.6187   -6.5581    1.9664 H         1 <0>         0.0608
     51 H12         3.1469   -7.5472    1.8128 H         1 <0>         0.0655
     52 H13         4.7288   -8.2303    1.3665 H         1 <0>         0.0721
     53 H14         5.4529   -4.6213    0.3064 H         1 <0>         0.1181
     54 H15         7.6516   -4.1215   -0.6831 H         1 <0>         0.1256
     55 H16         8.7115   -5.7380   -2.2084 H         1 <0>         0.1256
     56 H17         7.5731   -7.8548   -2.7435 H         1 <0>         0.1268
     57 H18         5.3782   -8.3584   -1.7475 H         1 <0>         0.1255
     58 H19        -2.7504   -5.5461   -0.0170 H         1 <0>         0.4075
     59 H20        -4.7938   -5.4980   -2.0532 H         1 <0>         0.0827
     60 H21        -6.3559   -4.9046   -1.4400 H         1 <0>         0.0796
     61 H22        -6.8116   -2.5219   -1.3001 H         1 <0>         0.1116
     62 H23        -6.3162   -0.2852   -2.2027 H         1 <0>         0.1192
     63 H24        -4.2013    0.1199   -3.3969 H         1 <0>         0.1195
     64 H25        -2.5813   -1.7117   -3.6878 H         1 <0>         0.1162
     65 H26        -3.0730   -3.9463   -2.7779 H         1 <0>         0.1098
     66 H27        -7.0426   -5.3770    1.2955 H         1 <0>         0.1473
     67 H28        -7.1390   -6.2177   -0.2705 H         1 <0>         0.1413
     68 H29        -6.7636   -8.2704    0.8836 H         1 <0>         0.4336
     69 H30        -9.1031   -7.0142    0.7422 H         1 <0>         0.1779
     70 H31        -8.4531   -7.4566    3.7784 H         1 <0>         0.1217
     71 H32       -10.0923   -6.9832    3.0781 H         1 <0>         0.1343
     72 H33       -10.1271   -9.1216    1.7141 H         1 <0>         0.1348
     73 H34        -8.4879   -9.5949    2.4145 H         1 <0>         0.1222
     74 H35        -5.0819   -7.2120   -1.1409 H         1 <0>         0.3919
     75 H36        -6.6743   -7.4922    2.3332 H         1 <0>         0.4268
@<TRIPOS>BOND
     1    1    2 1
     2    1   43 1
     3    1   44 1
     4    1   45 1
     5    2   10 1
     6    2    3 2
     7    3    4 1
     8    3   46 1
     9    4    9 ar
    10    4    5 ar
    11    5    6 ar
    12    5   23 1
    13    6    7 ar
    14    6   47 1
    15    7    8 ar
    16    7   11 1
    17    8    9 ar
    18    8   48 1
    19    9   10 1
    20   11   12 2
    21   11   13 am
    22   13   14 1
    23   13   49 1
    24   14   15 1
    25   14   16 1
    26   14   17 1
    27   16   50 1
    28   16   51 1
    29   16   52 1
    30   17   22 ar
    31   17   18 ar
    32   18   19 ar
    33   18   53 1
    34   19   20 ar
    35   19   54 1
    36   20   21 ar
    37   20   55 1
    38   21   22 ar
    39   21   56 1
    40   22   57 1
    41   23   24 2
    42   23   25 am
    43   25   26 1
    44   25   58 1
    45   26   27 1
    46   26   28 1
    47   26   35 1
    48   28   29 1
    49   28   59 1
    50   28   60 1
    51   29   34 ar
    52   29   30 ar
    53   30   31 ar
    54   30   61 1
    55   31   32 ar
    56   31   62 1
    57   32   33 ar
    58   32   63 1
    59   33   34 ar
    60   33   64 1
    61   34   65 1
    62   35   36 1
    63   35   37 1
    64   35   42 1
    65   37   38 1
    66   37   66 1
    67   37   67 1
    68   38   39 1
    69   38   68 1
    70   38   75 1
    71   39   41 1
    72   39   40 1
    73   39   69 1
    74   40   41 1
    75   40   70 1
    76   40   71 1
    77   41   72 1
    78   41   73 1
    79   42   74 1
@<TRIPOS>MOLECULE
CHEMBL190010
   89    89     0     0     0
SMALL
USER_CHARGES

@<TRIPOS>ATOM
      1 C1         -0.0187    1.5258    0.0104 C.3       1 <0>        -0.1391
      2 C2          0.0021   -0.0041    0.0020 C.3       1 <0>         0.0698
      3 H1         -1.0205   -0.3814    0.0098 H         1 <0>         0.0798
      4 C3          0.7074   -0.4901   -1.2379 C.2       1 <0>         0.4952
      5 O1          1.9121   -0.6771   -1.2202 O.co2     1 <0>        -0.6915
      6 O2          0.0735   -0.6963   -2.2587 O.co2     1 <0>        -0.6884
      7 N1          0.7106   -0.4894    1.1889 N.am      1 <0>        -0.6948
      8 C4          0.0512   -0.6335    2.3554 C.2       1 <0>         0.5090
      9 O3         -1.1288   -0.3614    2.4226 O.2       1 <0>        -0.5595
     10 C5          0.7801   -1.1327    3.5763 C.3       1 <0>        -0.1068
     11 H2          1.6054   -0.4630    3.8180 H         1 <0>         0.1053
     12 C6          1.3110   -2.5554    3.3282 C.3       1 <0>        -0.1180
     13 C7          0.6430   -3.4648    4.3801 C.3       1 <0>        -0.1189
     14 C8          0.2608   -2.4991    5.5293 C.3       1 <0>        -0.1297
     15 C9         -0.1918   -1.2259    4.7707 C.3       1 <0>        -0.1058
     16 H3         -1.2180   -1.3356    4.4199 H         1 <0>         0.1058
     17 C10        -0.0596    0.0076    5.6662 C.3       1 <0>         0.1074
     18 H4         -0.2927    0.9023    5.0889 H         1 <0>         0.1177
     19 C11        -1.0323   -0.1088    6.8415 C.3       1 <0>         0.1153
     20 H5         -2.0525   -0.1758    6.4635 H         1 <0>         0.1057
     21 C12        -0.9001    1.1248    7.7369 C.3       1 <0>        -0.1206
     22 C13        -1.9574    1.0689    8.8414 C.3       1 <0>        -0.0914
     23 C14        -1.7466    2.2354    9.8087 C.3       1 <0>        -0.1472
     24 C15        -3.3514    1.1683    8.2185 C.3       1 <0>        -0.1389
     25 N2         -0.7190   -1.3113    7.6174 N.am      1 <0>        -0.7152
     26 C16        -1.6770   -1.9049    8.3565 C.2       1 <0>         0.5129
     27 O4         -2.7984   -1.4435    8.3794 O.2       1 <0>        -0.5155
     28 C17        -1.3547   -3.1419    9.1547 C.3       1 <0>         0.1346
     29 H6         -0.5689   -2.9149    9.8752 H         1 <0>         0.1148
     30 C18        -0.8776   -4.2477    8.2111 C.3       1 <0>        -0.1166
     31 C19        -0.4325   -5.4606    9.0307 C.3       1 <0>        -0.0702
     32 S1          0.1332   -6.7717    7.9119 S.3       1 <0>        -0.2690
     33 C20         0.6191   -8.1191    9.0251 C.3       1 <0>        -0.1166
     34 N3         -2.5545   -3.5906    9.8657 N.am      1 <0>        -0.7116
     35 C21        -2.4365   -4.3222   10.9914 C.2       1 <0>         0.5051
     36 O5         -1.3372   -4.6091   11.4159 O.2       1 <0>        -0.5051
     37 C22        -3.6707   -4.7838   11.7228 C.3       1 <0>         0.1359
     38 H7         -4.4258   -5.0950   11.0010 H         1 <0>         0.1093
     39 C23        -4.2196   -3.6356   12.5721 C.3       1 <0>        -0.1281
     40 C24        -5.5397   -4.0636   13.2163 C.3       1 <0>        -0.0905
     41 C25        -6.0253   -2.9640   14.1629 C.3       1 <0>        -0.1473
     42 C26        -6.5872   -4.2971   12.1258 C.3       1 <0>        -0.1526
     43 N4         -3.3300   -5.9137   12.5909 N.am      1 <0>        -0.7218
     44 C27        -2.4116   -5.7617   13.5655 C.2       1 <0>         0.5163
     45 O6         -1.8672   -4.6896   13.7240 O.2       1 <0>        -0.5130
     46 C28        -2.0611   -6.9240   14.4585 C.3       1 <0>        -0.1699
     47 O7          1.2778    0.0954    6.1616 O.3       1 <0>        -0.5486
     48 H8          1.0039    1.9031    0.0027 H         1 <0>         0.0513
     49 H9         -0.5459    1.8868   -0.8726 H         1 <0>         0.0605
     50 H10        -0.5289    1.8773    0.9072 H         1 <0>         0.0468
     51 H11         1.6544   -0.7070    1.1351 H         1 <0>         0.4045
     52 H12         1.0415   -2.8848    2.3247 H         1 <0>         0.0720
     53 H13         2.3940   -2.5764    3.4503 H         1 <0>         0.0733
     54 H14        -0.2481   -3.9365    3.9659 H         1 <0>         0.0673
     55 H15         1.3458   -4.2193    4.7337 H         1 <0>         0.0702
     56 H16        -0.5582   -2.9080    6.1211 H         1 <0>         0.0774
     57 H17         1.1250   -2.2864    6.1586 H         1 <0>         0.0609
     58 H18         0.0932    1.1434    8.1854 H         1 <0>         0.0692
     59 H19        -1.0460    2.0247    7.1395 H         1 <0>         0.0729
     60 H20        -1.8678    0.1271    9.3829 H         1 <0>         0.0716
     61 H21        -1.8363    3.1771    9.2673 H         1 <0>         0.0516
     62 H22        -2.4999    2.1955   10.5956 H         1 <0>         0.0496
     63 H23        -0.7536    2.1645   10.2525 H         1 <0>         0.0485
     64 H24        -3.4410    2.1101    7.6771 H         1 <0>         0.0408
     65 H25        -3.5015    0.3373    7.5294 H         1 <0>         0.0731
     66 H26        -4.1046    1.1285    9.0054 H         1 <0>         0.0442
     67 H27         0.1779   -1.6803    7.5991 H         1 <0>         0.3979
     68 H28        -1.6931   -4.5366    7.5481 H         1 <0>         0.0840
     69 H29        -0.0392   -3.8825    7.6179 H         1 <0>         0.0910
     70 H30         0.3831   -5.1717    9.6936 H         1 <0>         0.0871
     71 H31        -1.2709   -5.8258    9.6238 H         1 <0>         0.0832
     72 H32         1.4126   -7.7743    9.6882 H         1 <0>         0.0752
     73 H33        -0.2414   -8.4284    9.6184 H         1 <0>         0.0726
     74 H34         0.9781   -8.9641    8.4376 H         1 <0>         0.1005
     75 H35        -3.4337   -3.3612    9.5262 H         1 <0>         0.4101
     76 H36        -3.5000   -3.3837   13.3511 H         1 <0>         0.0930
     77 H37        -4.3897   -2.7646   11.9392 H         1 <0>         0.0764
     78 H38        -5.3879   -4.9855   13.7777 H         1 <0>         0.0700
     79 H39        -6.1771   -2.0421   13.6014 H         1 <0>         0.0560
     80 H40        -6.9658   -3.2689   14.6218 H         1 <0>         0.0548
     81 H41        -5.2791   -2.7976   14.9397 H         1 <0>         0.0540
     82 H42        -6.7389   -3.3752   11.5644 H         1 <0>         0.0585
     83 H43        -6.2412   -5.0805   11.4515 H         1 <0>         0.0533
     84 H44        -7.5277   -4.6020   12.5848 H         1 <0>         0.0557
     85 H45        -3.7653   -6.7712   12.4641 H         1 <0>         0.4031
     86 H46        -2.6472   -7.7956   14.1671 H         1 <0>         0.0720
     87 H47        -0.9995   -7.1506   14.3600 H         1 <0>         0.0928
     88 H48        -2.2831   -6.6664   15.4941 H         1 <0>         0.0918
     89 H49         1.5540   -0.6687    6.6860 H         1 <0>         0.3636
@<TRIPOS>BOND
     1    1    2 1
     2    1   48 1
     3    1   49 1
     4    1   50 1
     5    2    3 1
     6    2    4 1
     7    2    7 1
     8    4    5 2
     9    4    6 1
    10    7    8 am
    11    7   51 1
    12    8    9 2
    13    8   10 1
    14   10   11 1
    15   10   15 1
    16   10   12 1
    17   12   13 1
    18   12   52 1
    19   12   53 1
    20   13   14 1
    21   13   54 1
    22   13   55 1
    23   14   15 1
    24   14   56 1
    25   14   57 1
    26   15   16 1
    27   15   17 1
    28   17   18 1
    29   17   19 1
    30   17   47 1
    31   19   20 1
    32   19   21 1
    33   19   25 1
    34   21   22 1
    35   21   58 1
    36   21   59 1
    37   22   23 1
    38   22   24 1
    39   22   60 1
    40   23   61 1
    41   23   62 1
    42   23   63 1
    43   24   64 1
    44   24   65 1
    45   24   66 1
    46   25   26 am
    47   25   67 1
    48   26   27 2
    49   26   28 1
    50   28   29 1
    51   28   30 1
    52   28   34 1
    53   30   31 1
    54   30   68 1
    55   30   69 1
    56   31   32 1
    57   31   70 1
    58   31   71 1
    59   32   33 1
    60   33   72 1
    61   33   73 1
    62   33   74 1
    63   34   35 am
    64   34   75 1
    65   35   36 2
    66   35   37 1
    67   37   38 1
    68   37   39 1
    69   37   43 1
    70   39   40 1
    71   39   76 1
    72   39   77 1
    73   40   41 1
    74   40   42 1
    75   40   78 1
    76   41   79 1
    77   41   80 1
    78   41   81 1
    79   42   82 1
    80   42   83 1
    81   42   84 1
    82   43   44 am
    83   43   85 1
    84   44   45 2
    85   44   46 1
    86   46   86 1
    87   46   87 1
    88   46   88 1
    89   47   89 1
@<TRIPOS>MOLECULE
CHEMBL582817
   81    84     0     0     0
SMALL
USER_CHARGES

@<TRIPOS>ATOM
      1 C1          0.4579    0.2738   -0.7363 C.3       1 <0>        -0.1824
      2 C2          0.3300   -1.1831   -0.3728 C.2       1 <0>         0.5141
      3 O1          1.3251   -1.8585   -0.2157 O.2       1 <0>        -0.5305
      4 N1         -0.8901   -1.7356   -0.2224 N.am      1 <0>        -0.7329
      5 C3         -1.0144   -3.1519    0.1310 C.3       1 <0>         0.1336
      6 H1         -2.0691   -3.4159    0.2080 H         1 <0>         0.1036
      7 C4         -0.3521   -4.0074   -0.9508 C.3       1 <0>        -0.0988
      8 C5         -1.1066   -3.8520   -2.2460 C.ar      1 <0>        -0.0277
      9 C6         -2.1588   -4.6991   -2.5382 C.ar      1 <0>        -0.1649
     10 C7         -2.8525   -4.5575   -3.7283 C.ar      1 <0>         0.1394
     11 C8         -2.4919   -3.5668   -4.6252 C.ar      1 <0>        -0.1927
     12 C9         -1.4382   -2.7187   -4.3314 C.ar      1 <0>         0.1387
     13 C10        -0.7493   -2.8589   -3.1383 C.ar      1 <0>        -0.1578
     14 F1         -1.0853   -1.7513   -5.2059 F         1 <0>        -0.1259
     15 F2         -3.8804   -5.3863   -4.0140 F         1 <0>        -0.1259
     16 C11        -0.3260   -3.4048    1.4738 C.3       1 <0>         0.0691
     17 H2          0.7287   -3.1408    1.3968 H         1 <0>         0.1467
     18 C12        -0.9883   -2.5492    2.5556 C.3       1 <0>        -0.0503
     19 N2         -0.2529   -2.7008    3.8182 N.4       1 <0>        -0.4906
     20 C13        -0.9599   -1.9812    4.8861 C.3       1 <0>         0.1203
     21 C14        -0.1576   -2.0794    6.1866 C.3       1 <0>        -0.1355
     22 C15         1.2023   -1.4037    5.9903 C.3       1 <0>        -0.1380
     23 C16         0.9873    0.0516    5.5685 C.3       1 <0>         0.3038
     24 H3          1.9537    0.5315    5.4141 H         1 <0>         0.1179
     25 N3          0.2160    0.0917    4.3195 N.3       1 <0>        -0.6963
     26 C17        -1.1122   -0.5092    4.4962 C.3       1 <0>         0.0347
     27 N4          0.2524    0.7608    6.6188 N.pl3     1 <0>        -0.7256
     28 C18         0.6655    2.0314    7.0236 C.2       1 <0>         0.1189
     29 C19         0.1291    2.8456    7.9751 C.2       1 <0>        -0.2442
     30 C20         0.7168    4.0769    8.2066 C.2       1 <0>        -0.1146
     31 C21         1.8037    4.4339    7.4827 C.2       1 <0>        -0.1977
     32 S1          2.0387    3.0082    6.4344 S.3       1 <0>         0.0372
     33 C22        -2.3228   -2.5920    5.0874 C.ar      1 <0>        -0.1242
     34 C23        -2.5401   -3.9189    4.7652 C.ar      1 <0>        -0.1376
     35 C24        -3.7900   -4.4791    4.9499 C.ar      1 <0>        -0.0939
     36 C25        -4.8229   -3.7127    5.4571 C.ar      1 <0>        -0.0973
     37 C26        -4.6055   -2.3866    5.7800 C.ar      1 <0>        -0.0438
     38 C27        -3.3540   -1.8274    5.5994 C.ar      1 <0>        -0.0902
     39 C28        -5.7315   -1.5511    6.3325 C.3       1 <0>        -0.0347
     40 C29        -6.9969   -2.4049    6.4357 C.3       1 <0>        -0.1513
     41 C30        -5.3497   -1.0352    7.7214 C.3       1 <0>        -0.1419
     42 C31        -5.9909   -0.3651    5.4014 C.3       1 <0>        -0.1406
     43 O2         -0.4473   -4.7863    1.8185 O.3       1 <0>        -0.5434
     44 H4          1.5126    0.5378   -0.8133 H         1 <0>         0.0998
     45 H5         -0.0325    0.4540   -1.6929 H         1 <0>         0.0940
     46 H6         -0.0139    0.8833    0.0344 H         1 <0>         0.0908
     47 H7         -1.6859   -1.1954   -0.3480 H         1 <0>         0.4107
     48 H8          0.6792   -3.6831   -1.0898 H         1 <0>         0.1085
     49 H9         -0.3659   -5.0538   -0.6456 H         1 <0>         0.1009
     50 H10        -2.4399   -5.4720   -1.8382 H         1 <0>         0.1427
     51 H11        -3.0322   -3.4559   -5.5538 H         1 <0>         0.1520
     52 H12         0.0701   -2.1944   -2.9069 H         1 <0>         0.1365
     53 H13        -0.9745   -1.5029    2.2504 H         1 <0>         0.1434
     54 H14        -2.0196   -2.8736    2.6946 H         1 <0>         0.1363
     55 H15        -0.1909   -3.6794    4.0559 H         1 <0>         0.4251
     56 H16        -0.7007   -1.5789    6.9882 H         1 <0>         0.1087
     57 H17        -0.0095   -3.1279    6.4450 H         1 <0>         0.1005
     58 H18         1.7614   -1.4327    6.9256 H         1 <0>         0.1082
     59 H19         1.7610   -1.9285    5.2153 H         1 <0>         0.0842
     60 H20         0.1424    1.0354    3.9701 H         1 <0>         0.3732
     61 H21        -1.6708   -0.4366    3.5630 H         1 <0>         0.1039
     62 H22        -1.6490    0.0211    5.2828 H         1 <0>         0.0851
     63 H23        -0.5213    0.3475    7.0330 H         1 <0>         0.4015
     64 H24        -0.7390    2.5360    8.5381 H         1 <0>         0.1264
     65 H25         0.3138    4.7440    8.9542 H         1 <0>         0.1357
     66 H26         2.3821    5.3448    7.5300 H         1 <0>         0.1876
     67 H27        -1.7332   -4.5175    4.3690 H         1 <0>         0.1180
     68 H28        -3.9600   -5.5153    4.6976 H         1 <0>         0.1369
     69 H29        -5.7998   -4.1503    5.6008 H         1 <0>         0.1402
     70 H30        -3.1831   -0.7921    5.8552 H         1 <0>         0.1298
     71 H31        -6.8120   -3.2499    7.0990 H         1 <0>         0.0620
     72 H32        -7.8113   -1.8007    6.8353 H         1 <0>         0.0674
     73 H33        -7.2688   -2.7725    5.4462 H         1 <0>         0.0615
     74 H34        -4.4482   -0.4269    7.6479 H         1 <0>         0.0539
     75 H35        -6.1641   -0.4309    8.1210 H         1 <0>         0.0678
     76 H36        -5.1649   -1.8801    8.3847 H         1 <0>         0.0598
     77 H37        -6.2629   -0.7327    4.4120 H         1 <0>         0.0587
     78 H38        -6.8054    0.2391    5.8010 H         1 <0>         0.0677
     79 H39        -5.0894    0.2431    5.3279 H         1 <0>         0.0539
     80 H40        -1.3608   -5.0916    1.9042 H         1 <0>         0.3853
     81 H41         0.6759   -2.3204    3.7142 H         1 <0>         0.4348
@<TRIPOS>BOND
     1    1    2 1
     2    1   44 1
     3    1   45 1
     4    1   46 1
     5    2    3 2
     6    2    4 am
     7    4    5 1
     8    4   47 1
     9    5    6 1
    10    5    7 1
    11    5   16 1
    12    7    8 1
    13    7   48 1
    14    7   49 1
    15    8   13 ar
    16    8    9 ar
    17    9   10 ar
    18    9   50 1
    19   10   11 ar
    20   10   15 1
    21   11   12 ar
    22   11   51 1
    23   12   13 ar
    24   12   14 1
    25   13   52 1
    26   16   17 1
    27   16   18 1
    28   16   43 1
    29   18   19 1
    30   18   53 1
    31   18   54 1
    32   19   20 1
    33   19   55 1
    34   19   81 1
    35   20   26 1
    36   20   21 1
    37   20   33 1
    38   21   22 1
    39   21   56 1
    40   21   57 1
    41   22   23 1
    42   22   58 1
    43   22   59 1
    44   23   24 1
    45   23   25 1
    46   23   27 1
    47   25   26 1
    48   25   60 1
    49   26   61 1
    50   26   62 1
    51   27   28 1
    52   27   63 1
    53   28   32 1
    54   28   29 2
    55   29   30 1
    56   29   64 1
    57   30   31 2
    58   30   65 1
    59   31   32 1
    60   31   66 1
    61   33   38 ar
    62   33   34 ar
    63   34   35 ar
    64   34   67 1
    65   35   36 ar
    66   35   68 1
    67   36   37 ar
    68   36   69 1
    69   37   38 ar
    70   37   39 1
    71   38   70 1
    72   39   40 1
    73   39   41 1
    74   39   42 1
    75   40   71 1
    76   40   72 1
    77   40   73 1
    78   41   74 1
    79   41   75 1
    80   41   76 1
    81   42   77 1
    82   42   78 1
    83   42   79 1
    84   43   80 1
@<TRIPOS>MOLECULE
CHEMBL582817__1
   81    84     0     0     0
SMALL
USER_CHARGES

@<TRIPOS>ATOM
      1 C1          5.0190   -3.6187    4.5674 C.3       1 <0>        -0.1829
      2 C2          4.0919   -3.3215    3.4170 C.2       1 <0>         0.5067
      3 O1          3.6822   -4.2251    2.7194 O.2       1 <0>        -0.5271
      4 N1          3.7182   -2.0517    3.1634 N.am      1 <0>        -0.7274
      5 C3          2.7293   -1.7739    2.1188 C.3       1 <0>         0.1275
      6 H1          2.5599   -0.6990    2.0554 H         1 <0>         0.0934
      7 C4          3.2489   -2.2885    0.7749 C.3       1 <0>        -0.1017
      8 C5          4.4765   -1.5090    0.3792 C.ar      1 <0>        -0.0232
      9 C6          4.3496   -0.3535   -0.3682 C.ar      1 <0>        -0.1654
     10 C7          5.4769    0.3633   -0.7328 C.ar      1 <0>         0.1387
     11 C8          6.7312   -0.0777   -0.3479 C.ar      1 <0>        -0.1953
     12 C9          6.8571   -1.2350    0.4010 C.ar      1 <0>         0.1364
     13 C10         5.7280   -1.9473    0.7688 C.ar      1 <0>        -0.1589
     14 F1          8.0808   -1.6666    0.7774 F         1 <0>        -0.1278
     15 F2          5.3526    1.4924   -1.4642 F         1 <0>        -0.1268
     16 C11         1.4147   -2.4780    2.4607 C.3       1 <0>         0.0953
     17 H2          1.5650   -3.5575    2.4416 H         1 <0>         0.1304
     18 C12         0.9559   -2.0517    3.8567 C.3       1 <0>         0.0115
     19 N2         -0.3064   -2.7277    4.1849 N.3       1 <0>        -0.6780
     20 C13        -0.8407   -2.2511    5.4676 C.3       1 <0>         0.1450
     21 C14        -2.0902   -3.0578    5.8325 C.3       1 <0>        -0.1168
     22 C15        -1.7001   -4.5264    6.0228 C.3       1 <0>        -0.1392
     23 C16        -0.6127   -4.6249    7.0949 C.3       1 <0>         0.2714
     24 H3         -0.3328   -5.6692    7.2331 H         1 <0>         0.1507
     25 N3          0.5643   -3.8548    6.6753 N.4       1 <0>        -0.5177
     26 C17         0.2148   -2.4339    6.5603 C.3       1 <0>        -0.0026
     27 N4         -1.1228   -4.0855    8.3579 N.pl3     1 <0>        -0.6992
     28 C18        -0.9006   -4.7746    9.5517 C.2       1 <0>         0.0759
     29 C19        -1.2915   -4.4496   10.8157 C.2       1 <0>        -0.2023
     30 C20        -0.9525   -5.2966   11.8562 C.2       1 <0>        -0.1243
     31 C21        -0.2448   -6.4191   11.5872 C.2       1 <0>        -0.1697
     32 S1         -0.0374   -6.3144    9.8173 S.3       1 <0>         0.0401
     33 C22        -1.1986   -0.7918    5.3527 C.ar      1 <0>        -0.1223
     34 C23        -1.0441    0.0457    6.4418 C.ar      1 <0>        -0.1261
     35 C24        -1.3723    1.3842    6.3364 C.ar      1 <0>        -0.1038
     36 C25        -1.8547    1.8856    5.1417 C.ar      1 <0>        -0.1074
     37 C26        -2.0083    1.0486    4.0527 C.ar      1 <0>        -0.0495
     38 C27        -1.6759   -0.2894    4.1568 C.ar      1 <0>        -0.1054
     39 C28        -2.5346    1.5951    2.7506 C.3       1 <0>        -0.0327
     40 C29        -2.7016    3.1117    2.8643 C.3       1 <0>        -0.1501
     41 C30        -1.5476    1.2736    1.6265 C.3       1 <0>        -0.1412
     42 C31        -3.8888    0.9549    2.4389 C.3       1 <0>        -0.1406
     43 O2          0.4184   -2.1187    1.5014 O.3       1 <0>        -0.5441
     44 H4          5.1362   -4.6975    4.6702 H         1 <0>         0.0977
     45 H5          5.9912   -3.1641    4.3772 H         1 <0>         0.0955
     46 H6          4.6001   -3.2094    5.4867 H         1 <0>         0.0815
     47 H7          4.1039   -1.3217    3.6726 H         1 <0>         0.4060
     48 H8          3.5022   -3.3449    0.8637 H         1 <0>         0.1097
     49 H9          2.4778   -2.1624    0.0148 H         1 <0>         0.0972
     50 H10         3.3708   -0.0095   -0.6684 H         1 <0>         0.1425
     51 H11         7.6110    0.4805   -0.6321 H         1 <0>         0.1508
     52 H12         5.8257   -2.8479    1.3569 H         1 <0>         0.1355
     53 H13         1.7158   -2.3259    4.5884 H         1 <0>         0.0746
     54 H14         0.8057   -0.9723    3.8759 H         1 <0>         0.0570
     55 H15        -0.9826   -2.6098    3.4454 H         1 <0>         0.3743
     56 H16        -2.5163   -2.6710    6.7582 H         1 <0>         0.0845
     57 H17        -2.8236   -2.9765    5.0303 H         1 <0>         0.1023
     58 H18        -2.5738   -5.0973    6.3371 H         1 <0>         0.1172
     59 H19        -1.3215   -4.9273    5.0826 H         1 <0>         0.1167
     60 H20         1.2984   -3.9653    7.3587 H         1 <0>         0.4246
     61 H21         1.1057   -1.8607    6.3038 H         1 <0>         0.1341
     62 H22        -0.1825   -2.0798    7.5116 H         1 <0>         0.1341
     63 H23        -1.6149   -3.2496    8.3648 H         1 <0>         0.4200
     64 H24        -1.8552   -3.5475   11.0022 H         1 <0>         0.1348
     65 H25        -1.2480   -5.0652   12.8689 H         1 <0>         0.1439
     66 H26         0.1014   -7.1830   12.2677 H         1 <0>         0.1941
     67 H27        -0.6673   -0.3460    7.3751 H         1 <0>         0.1169
     68 H28        -1.2523    2.0382    7.1874 H         1 <0>         0.1281
     69 H29        -2.1119    2.9314    5.0596 H         1 <0>         0.1337
     70 H30        -1.7923   -0.9427    3.3048 H         1 <0>         0.1232
     71 H31        -1.7368    3.5678    3.0864 H         1 <0>         0.0596
     72 H32        -3.0822    3.5070    1.9225 H         1 <0>         0.0653
     73 H33        -3.4046    3.3408    3.6651 H         1 <0>         0.0607
     74 H34        -1.4968    0.1940    1.4854 H         1 <0>         0.0561
     75 H35        -1.8827    1.7454    0.7028 H         1 <0>         0.0670
     76 H36        -0.5603    1.6524    1.8905 H         1 <0>         0.0559
     77 H37        -4.5918    1.1839    3.2397 H         1 <0>         0.0577
     78 H38        -4.2694    1.3501    1.4971 H         1 <0>         0.0655
     79 H39        -3.7698   -0.1256    2.3579 H         1 <0>         0.0558
     80 H40         0.2327   -1.1705    1.4636 H         1 <0>         0.3722
     81 H41         0.8860   -4.1945    5.7813 H         1 <0>         0.4406
@<TRIPOS>BOND
     1    1    2 1
     2    1   44 1
     3    1   45 1
     4    1   46 1
     5    2    3 2
     6    2    4 am
     7    4    5 1
     8    4   47 1
     9    5    6 1
    10    5    7 1
    11    5   16 1
    12    7    8 1
    13    7   48 1
    14    7   49 1
    15    8   13 ar
    16    8    9 ar
    17    9   10 ar
    18    9   50 1
    19   10   11 ar
    20   10   15 1
    21   11   12 ar
    22   11   51 1
    23   12   13 ar
    24   12   14 1
    25   13   52 1
    26   16   17 1
    27   16   18 1
    28   16   43 1
    29   18   19 1
    30   18   53 1
    31   18   54 1
    32   19   20 1
    33   19   55 1
    34   20   26 1
    35   20   21 1
    36   20   33 1
    37   21   22 1
    38   21   56 1
    39   21   57 1
    40   22   23 1
    41   22   58 1
    42   22   59 1
    43   23   24 1
    44   23   25 1
    45   23   27 1
    46   25   26 1
    47   25   60 1
    48   25   81 1
    49   26   61 1
    50   26   62 1
    51   27   28 1
    52   27   63 1
    53   28   32 1
    54   28   29 2
    55   29   30 1
    56   29   64 1
    57   30   31 2
    58   30   65 1
    59   31   32 1
    60   31   66 1
    61   33   38 ar
    62   33   34 ar
    63   34   35 ar
    64   34   67 1
    65   35   36 ar
    66   35   68 1
    67   36   37 ar
    68   36   69 1
    69   37   38 ar
    70   37   39 1
    71   38   70 1
    72   39   40 1
    73   39   41 1
    74   39   42 1
    75   40   71 1
    76   40   72 1
    77   40   73 1
    78   41   74 1
    79   41   75 1
    80   41   76 1
    81   42   77 1
    82   42   78 1
    83   42   79 1
    84   43   80 1
@<TRIPOS>MOLECULE
CHEMBL1209106
   72    75     0     0     0
SMALL
USER_CHARGES

@<TRIPOS>ATOM
      1 C1          4.7767   -4.1208    6.2952 C.3       1 <0>        -0.1840
      2 C2          4.3453   -3.4452    5.0190 C.2       1 <0>         0.5119
      3 O1          4.1867   -4.0994    4.0102 O.2       1 <0>        -0.5316
      4 N1          4.1356   -2.1140    4.9989 N.am      1 <0>        -0.7327
      5 C3          3.7161   -1.4573    3.7583 C.3       1 <0>         0.1326
      6 H1          3.5974   -0.3883    3.9353 H         1 <0>         0.1053
      7 C4          4.7773   -1.6807    2.6790 C.3       1 <0>        -0.0988
      8 C5          6.0561   -0.9925    3.0818 C.ar      1 <0>        -0.0284
      9 C6          6.2801    0.3201    2.7116 C.ar      1 <0>        -0.1647
     10 C7          7.4549    0.9533    3.0808 C.ar      1 <0>         0.1399
     11 C8          8.4050    0.2712    3.8211 C.ar      1 <0>        -0.1923
     12 C9          8.1794   -1.0432    4.1917 C.ar      1 <0>         0.1388
     13 C10         7.0015   -1.6727    3.8258 C.ar      1 <0>        -0.1583
     14 F1          9.1058   -1.7101    4.9143 F         1 <0>        -0.1258
     15 F2          7.6740    2.2361    2.7181 F         1 <0>        -0.1254
     16 C11         2.3837   -2.0484    3.2936 C.3       1 <0>         0.0681
     17 H2          2.5025   -3.1174    3.1166 H         1 <0>         0.1453
     18 C12         1.3225   -1.8250    4.3729 C.3       1 <0>        -0.0557
     19 N2          0.0760   -2.4958    3.9803 N.4       1 <0>        -0.4993
     20 C13        -0.9782   -2.1785    4.9530 C.3       1 <0>         0.1163
     21 C14        -2.2714   -2.8926    4.5547 C.3       1 <0>        -0.1311
     22 C15        -2.0340   -4.4039    4.5346 C.3       1 <0>        -0.1366
     23 C16        -1.6014   -4.8707    5.9260 C.3       1 <0>        -0.1322
     24 C17        -0.3082   -4.1566    6.3243 C.3       1 <0>        -0.1355
     25 C18        -0.5456   -2.6453    6.3443 C.3       1 <0>        -0.1361
     26 C19        -1.2119   -0.6899    4.9727 C.ar      1 <0>        -0.1211
     27 C20        -0.9315    0.0688    3.8515 C.ar      1 <0>        -0.1381
     28 C21        -1.1459    1.4341    3.8696 C.ar      1 <0>        -0.0947
     29 C22        -1.6412    2.0411    5.0088 C.ar      1 <0>        -0.0904
     30 C23        -1.9225    1.2825    6.1293 C.ar      1 <0>        -0.0522
     31 C24        -1.7120   -0.0839    6.1098 C.ar      1 <0>        -0.0882
     32 C25        -2.4620    1.9441    7.3712 C.3       1 <0>        -0.0920
     33 C26        -3.7581    2.7268    7.0487 C.3       1 <0>        -0.1486
     34 C27        -3.5767    4.0160    7.8896 C.3       1 <0>         0.0433
     35 O2         -2.1624    4.2881    7.7883 O.3       1 <0>        -0.3725
     36 C28        -1.4845    3.0235    7.8753 C.3       1 <0>         0.0540
     37 O3          1.9746   -1.4078    2.0835 O.3       1 <0>        -0.5423
     38 H3          4.8955   -5.1898    6.1182 H         1 <0>         0.1002
     39 H4          5.7260   -3.6997    6.6262 H         1 <0>         0.0960
     40 H5          4.0207   -3.9617    7.0641 H         1 <0>         0.0908
     41 H6          4.2623   -1.5908    5.8058 H         1 <0>         0.4118
     42 H7          4.9601   -2.7491    2.5648 H         1 <0>         0.1083
     43 H8          4.4256   -1.2690    1.7330 H         1 <0>         0.1015
     44 H9          5.5386    0.8521    2.1340 H         1 <0>         0.1430
     45 H10         9.3218    0.7641    4.1092 H         1 <0>         0.1524
     46 H11         6.8234   -2.6969    4.1186 H         1 <0>         0.1361
     47 H12         1.6742   -2.2366    5.3189 H         1 <0>         0.1412
     48 H13         1.1398   -0.7565    4.4871 H         1 <0>         0.1412
     49 H14        -0.2039   -2.1765    3.0649 H         1 <0>         0.4278
     50 H15        -3.0535   -2.6572    5.2764 H         1 <0>         0.1132
     51 H16        -2.5796   -2.5600    3.5634 H         1 <0>         0.0907
     52 H17        -2.9553   -4.9127    4.2509 H         1 <0>         0.0959
     53 H18        -1.2518   -4.6394    3.8129 H         1 <0>         0.0580
     54 H19        -2.3836   -4.6353    6.6477 H         1 <0>         0.0805
     55 H20        -1.4323   -5.9474    5.9117 H         1 <0>         0.0828
     56 H21        -0.0000   -4.4892    7.3155 H         1 <0>         0.0946
     57 H22         0.4740   -4.3921    5.6026 H         1 <0>         0.0569
     58 H23         0.3757   -2.1366    6.6281 H         1 <0>         0.0892
     59 H24        -1.3277   -2.4099    7.0660 H         1 <0>         0.1135
     60 H25        -0.5445   -0.4053    2.9616 H         1 <0>         0.1180
     61 H26        -0.9261    2.0269    2.9939 H         1 <0>         0.1378
     62 H27        -1.8081    3.1080    5.0231 H         1 <0>         0.1379
     63 H28        -1.9354   -0.6772    6.9842 H         1 <0>         0.1344
     64 H29        -2.6453    1.2024    8.1486 H         1 <0>         0.0968
     65 H30        -3.8169    2.9608    5.9857 H         1 <0>         0.0823
     66 H31        -4.6385    2.1717    7.3726 H         1 <0>         0.0875
     67 H32        -4.1566    4.8357    7.4655 H         1 <0>         0.1002
     68 H33        -3.8604    3.8405    8.9273 H         1 <0>         0.0671
     69 H34        -1.2100    2.8206    8.9105 H         1 <0>         0.0665
     70 H35        -0.5925    3.0373    7.2491 H         1 <0>         0.0847
     71 H36         1.8493   -0.4526    2.1671 H         1 <0>         0.3863
     72 H37         0.2236   -3.4937    3.9579 H         1 <0>         0.4278
@<TRIPOS>BOND
     1    1    2 1
     2    1   38 1
     3    1   39 1
     4    1   40 1
     5    2    3 2
     6    2    4 am
     7    4    5 1
     8    4   41 1
     9    5    6 1
    10    5    7 1
    11    5   16 1
    12    7    8 1
    13    7   42 1
    14    7   43 1
    15    8   13 ar
    16    8    9 ar
    17    9   10 ar
    18    9   44 1
    19   10   11 ar
    20   10   15 1
    21   11   12 ar
    22   11   45 1
    23   12   13 ar
    24   12   14 1
    25   13   46 1
    26   16   17 1
    27   16   18 1
    28   16   37 1
    29   18   19 1
    30   18   47 1
    31   18   48 1
    32   19   20 1
    33   19   49 1
    34   19   72 1
    35   20   25 1
    36   20   21 1
    37   20   26 1
    38   21   22 1
    39   21   50 1
    40   21   51 1
    41   22   23 1
    42   22   52 1
    43   22   53 1
    44   23   24 1
    45   23   54 1
    46   23   55 1
    47   24   25 1
    48   24   56 1
    49   24   57 1
    50   25   58 1
    51   25   59 1
    52   26   31 ar
    53   26   27 ar
    54   27   28 ar
    55   27   60 1
    56   28   29 ar
    57   28   61 1
    58   29   30 ar
    59   29   62 1
    60   30   31 ar
    61   30   32 1
    62   31   63 1
    63   32   36 1
    64   32   33 1
    65   32   64 1
    66   33   34 1
    67   33   65 1
    68   33   66 1
    69   34   35 1
    70   34   67 1
    71   34   68 1
    72   35   36 1
    73   36   69 1
    74   36   70 1
    75   37   71 1
