@<TRIPOS>MOLECULE
3L5D-BDV
 61 62 0 0 0
SMALL
SF_CHARGES


@<TRIPOS>ATOM
1    C        20.6810   10.6720   21.7290  C.3        1 SUBUNIT      0.2439
2    N        21.2830    9.5630   22.4480  N.2        1 SUBUNIT     -0.5951
3    O        20.5470   13.0130   22.4570  O.2        1 SUBUNIT     -0.5434
4    C        21.7630   10.0660   23.6080  C.2        1 SUBUNIT      0.5914
5    N        21.5530   11.3910   23.7570  N.am       1 SUBUNIT     -0.4615
6    O        28.3810   14.2820   24.6840  O.2        1 SUBUNIT     -0.5633
7    C        20.9070   11.8540   22.6750  C.2        1 SUBUNIT      0.6159
8    N        22.3880    9.3370   24.5310  N.pl3      1 SUBUNIT     -0.6904
9    C        19.1580   10.4820   21.5830  C.3        1 SUBUNIT     -0.1240
10   N        27.4880   15.0870   22.7670  N.am       1 SUBUNIT     -0.5938
11   C        21.3900   10.9180   20.3920  C.3        1 SUBUNIT     -0.0911
12   N        29.3240   13.7470   22.6950  N.am       1 SUBUNIT     -0.5924
13   C        22.8940   11.1590   20.5390  C.3        1 SUBUNIT     -0.0303
14   C        23.4340   12.0520   19.4210  C.3        1 SUBUNIT     -0.1124
15   C        23.6780    9.8530   20.6550  C.3        1 SUBUNIT     -0.1124
16   C        21.9650   12.2050   24.9040  C.3        1 SUBUNIT      0.1674
17   C        23.1210   13.1300   24.5530  C.2        1 SUBUNIT     -0.0554
18   C        23.1860   14.4410   25.1120  C.2        1 SUBUNIT     -0.1161
19   C        24.2730   15.3070   24.7810  C.2        1 SUBUNIT     -0.1158
20   C        25.2970   14.8650   23.8900  C.2        1 SUBUNIT     -0.0570
21   C        25.2310   13.5550   23.3320  C.2        1 SUBUNIT     -0.1158
22   C        24.1490   12.6920   23.6630  C.2        1 SUBUNIT     -0.1161
23   C        26.4520   15.7820   23.5370  C.3        1 SUBUNIT      0.1659
24   C        29.2580   13.9080   21.2460  C.3        1 SUBUNIT      0.1332
25   C        28.4300   12.7910   20.6080  C.3        1 SUBUNIT     -0.0904
26   C        28.8260   11.4220   21.1330  C.3        1 SUBUNIT     -0.0769
27   C        28.3980   14.3670   23.4560  C.2        1 SUBUNIT      0.8029
28   C        28.2520   10.2950   20.2960  C.3        1 SUBUNIT     -0.1179
29   H        22.5850    8.3489   24.5000  H          1 SUBUNIT      0.3125
30   H        22.7227    9.7730   25.3760  H          1 SUBUNIT      0.3125
31   H        18.9281    9.5632   21.0335  H          1 SUBUNIT      0.0381
32   H        18.7082   11.3201   21.0405  H          1 SUBUNIT      0.0381
33   H        18.6748   10.4176   22.5635  H          1 SUBUNIT      0.0381
34   H        27.5518   15.1210   21.7616  H          1 SUBUNIT      0.3116
35   H        21.2400   10.0419   19.7525  H          1 SUBUNIT      0.0375
36   H        20.9425   11.7977   19.9177  H          1 SUBUNIT      0.0375
37   H        30.0307   13.1931   23.1530  H          1 SUBUNIT      0.3132
38   H        23.0411   11.6961   21.4818  H          1 SUBUNIT      0.0369
39   H        23.2668   11.5963   18.4395  H          1 SUBUNIT      0.0438
40   H        24.5103   12.2175   19.5363  H          1 SUBUNIT      0.0438
41   H        22.9406   13.0295   19.4267  H          1 SUBUNIT      0.0438
42   H        23.3539    9.2769   21.5280  H          1 SUBUNIT      0.0438
43   H        24.7506   10.0471   20.7592  H          1 SUBUNIT      0.0438
44   H        23.5337    9.2285   19.7672  H          1 SUBUNIT      0.0438
45   H        21.1074   12.8030   25.2295  H          1 SUBUNIT      0.0253
46   H        22.2703   11.5331   25.7130  H          1 SUBUNIT      0.0253
47   H        22.4153   14.7772   25.7834  H          1 SUBUNIT      0.1052
48   H        24.3203   16.2951   25.2042  H          1 SUBUNIT      0.1053
49   H        26.0000   13.2174   22.6594  H          1 SUBUNIT      0.1053
50   H        24.1067   11.7038   23.2393  H          1 SUBUNIT      0.1052
51   H        26.9041   16.1648   24.4579  H          1 SUBUNIT      0.0278
52   H        26.0788   16.6190   22.9377  H          1 SUBUNIT      0.0278
53   H        28.8009   14.8781   21.0248  H          1 SUBUNIT      0.0314
54   H        30.2775   13.8849   20.8472  H          1 SUBUNIT      0.0314
55   H        27.3716   12.9611   20.8312  H          1 SUBUNIT      0.0466
56   H        28.5826   12.8101   19.5239  H          1 SUBUNIT      0.0466
57   H        29.9182   11.3444   21.1253  H          1 SUBUNIT      0.0455
58   H        28.4595   11.3191   22.1597  H          1 SUBUNIT      0.0455
59   H        27.1577   10.3329   20.2844  H          1 SUBUNIT      0.0458
60   H        28.5508    9.3195   20.6936  H          1 SUBUNIT      0.0458
61   H        28.6019   10.3579   19.2603  H          1 SUBUNIT      0.0458
@<TRIPOS>BOND
     1    1    2 1
     2    1    7 1
     3    1    9 1
     4    1   11 1
     5    2    4 2
     6    3    7 2
     7    4    5 1
     8    4    8 1
     9    5    7 1
    10    5   16 1
    11    6   27 2
    12   10   23 1
    13   10   27 1
    14   11   13 1
    15   12   24 1
    16   12   27 1
    17   13   14 1
    18   13   15 1
    19   16   17 1
    20   17   18 2
    21   17   22 1
    22   18   19 1
    23   19   20 2
    24   20   21 1
    25   20   23 1
    26   21   22 2
    27   24   25 1
    28   25   26 1
    29   26   28 1
    30    8   29 1
    31    8   30 1
    32    9   31 1
    33    9   32 1
    34    9   33 1
    35   10   34 1
    36   11   35 1
    37   11   36 1
    38   12   37 1
    39   13   38 1
    40   14   39 1
    41   14   40 1
    42   14   41 1
    43   15   42 1
    44   15   43 1
    45   15   44 1
    46   16   45 1
    47   16   46 1
    48   18   47 1
    49   19   48 1
    50   21   49 1
    51   22   50 1
    52   23   51 1
    53   23   52 1
    54   24   53 1
    55   24   54 1
    56   25   55 1
    57   25   56 1
    58   26   57 1
    59   26   58 1
    60   28   59 1
    61   28   60 1
    62   28   61 1
