@<TRIPOS>MOLECULE
CHEMBL399326
   61    64     0     0     0
SMALL
USER_CHARGES

@<TRIPOS>ATOM
      1 C1          0.3210    1.4998    0.0825 C.3       1 <0>        -0.1162
      2 C2          0.2515   -0.0053    0.0557 C.ar      1 <0>        -0.0747
      3 C3          0.1718   -0.6713   -1.1511 C.ar      1 <0>        -0.0847
      4 C4          0.1123   -2.0519   -1.1814 C.ar      1 <0>        -0.1123
      5 C5          0.1402   -2.7782    0.0024 C.ar      1 <0>         0.1554
      6 C6          0.2112   -2.1163    1.2193 C.ar      1 <0>        -0.1375
      7 C7          0.2734   -0.7255    1.2488 C.ar      1 <0>         0.0030
      8 C8          0.3576   -0.0122    2.5467 C.ar      1 <0>        -0.0584
      9 C9          1.4822   -0.1611    3.3551 C.ar      1 <0>        -0.0682
     10 C10         1.5561    0.5051    4.5615 C.ar      1 <0>        -0.0068
     11 C11         0.5163    1.3208    4.9720 C.ar      1 <0>        -0.0349
     12 C12        -0.6040    1.4752    4.1780 C.ar      1 <0>        -0.1798
     13 C13        -0.6887    0.8170    2.9613 C.ar      1 <0>         0.0978
     14 O1         -1.7868    0.9727    2.1770 O.3       1 <0>        -0.3047
     15 C14        -2.8159    1.8356    2.6655 C.3       1 <0>         0.5994
     16 F1         -2.2982    3.1225    2.8471 F         1 <0>        -0.1620
     17 F2         -3.8645    1.8810    1.7405 F         1 <0>        -0.1388
     18 F3         -3.2924    1.3479    3.8871 F         1 <0>        -0.1693
     19 C15         2.7732    0.3432    5.4352 C.3       1 <0>        -0.1184
     20 C16         2.7162    0.9387    6.8434 C.3       1 <0>        -0.1646
     21 C17         3.5774    1.6019    5.7667 C.3       1 <0>        -0.1888
     22 C18         3.0917    2.9087    5.1944 C.2       1 <0>         0.5131
     23 O2          3.2927    3.9499    5.7960 O.co2     1 <0>        -0.6966
     24 O3          2.4977    2.9247    4.1298 O.co2     1 <0>        -0.6716
     25 N1          0.1177   -4.1757   -0.0288 N.am      1 <0>        -0.5432
     26 C19         0.3402   -4.8410   -1.1752 C.2       1 <0>         0.5244
     27 O4          0.2118   -6.0467   -1.2040 O.2       1 <0>        -0.5265
     28 C20         0.7467   -4.1048   -2.4242 C.3       1 <0>        -0.1311
     29 C21         0.0063   -2.7694   -2.5031 C.3       1 <0>        -0.0166
     30 C22         0.6289   -1.9063   -3.6023 C.3       1 <0>        -0.1413
     31 C23        -1.4672   -3.0221   -2.8286 C.3       1 <0>        -0.1391
     32 C24        -0.1509   -4.9233    1.2021 C.3       1 <0>         0.1282
     33 C25        -1.4193   -5.7601    1.0240 C.3       1 <0>        -0.1687
     34 C26         1.0307   -5.8466    1.5061 C.3       1 <0>        -0.1684
     35 H1          1.3632    1.8162    0.0421 H         1 <0>         0.0742
     36 H2         -0.2149    1.9037   -0.7764 H         1 <0>         0.0615
     37 H3         -0.1352    1.8682    1.0014 H         1 <0>         0.0736
     38 H4          0.1557   -0.1116   -2.0746 H         1 <0>         0.1315
     39 H5          0.2223   -2.6784    2.1414 H         1 <0>         0.1309
     40 H6          2.2953   -0.7974    3.0383 H         1 <0>         0.1276
     41 H7          0.5805    1.8389    5.9175 H         1 <0>         0.1240
     42 H8         -1.4125    2.1129    4.5038 H         1 <0>         0.1264
     43 H9          3.3259   -0.5871    5.3038 H         1 <0>         0.1028
     44 H10         1.7984    1.4476    7.1379 H         1 <0>         0.0910
     45 H11         3.2314    0.4001    7.6389 H         1 <0>         0.0881
     46 H12         4.6591    1.4997    5.8537 H         1 <0>         0.0965
     47 H13         1.8212   -3.9225   -2.4038 H         1 <0>         0.1013
     48 H14         0.4993   -4.7085   -3.2974 H         1 <0>         0.1049
     49 H15         1.6783   -1.7241   -3.3706 H         1 <0>         0.0625
     50 H16         0.5526   -2.4245   -4.5582 H         1 <0>         0.0609
     51 H17         0.0995   -0.9553   -3.6613 H         1 <0>         0.0662
     52 H18        -1.9946   -2.0701   -2.8883 H         1 <0>         0.0640
     53 H19        -1.5444   -3.5408   -3.7841 H         1 <0>         0.0614
     54 H20        -1.9123   -3.6355   -2.0451 H         1 <0>         0.0528
     55 H21        -0.2888   -4.2257    2.0282 H         1 <0>         0.0970
     56 H22        -2.2611   -5.1023    0.8074 H         1 <0>         0.0542
     57 H23        -1.2814   -6.4577    0.1979 H         1 <0>         0.0809
     58 H24        -1.6192   -6.3164    1.9398 H         1 <0>         0.0663
     59 H25         1.9344   -5.2505    1.6329 H         1 <0>         0.0572
     60 H26         0.8308   -6.4029    2.4219 H         1 <0>         0.0689
     61 H27         1.1686   -6.5442    0.6800 H         1 <0>         0.0756
@<TRIPOS>BOND
     1    1    2 1
     2    1   35 1
     3    1   36 1
     4    1   37 1
     5    2    7 ar
     6    2    3 ar
     7    3    4 ar
     8    3   38 1
     9    4   29 1
    10    4    5 ar
    11    5    6 ar
    12    5   25 1
    13    6    7 ar
    14    6   39 1
    15    7    8 1
    16    8   13 ar
    17    8    9 ar
    18    9   10 ar
    19    9   40 1
    20   10   11 ar
    21   10   19 1
    22   11   12 ar
    23   11   41 1
    24   12   13 ar
    25   12   42 1
    26   13   14 1
    27   14   15 1
    28   15   16 1
    29   15   17 1
    30   15   18 1
    31   19   21 1
    32   19   20 1
    33   19   43 1
    34   20   21 1
    35   20   44 1
    36   20   45 1
    37   21   22 1
    38   21   46 1
    39   22   23 2
    40   22   24 1
    41   25   26 am
    42   25   32 1
    43   26   27 2
    44   26   28 1
    45   28   29 1
    46   28   47 1
    47   28   48 1
    48   29   30 1
    49   29   31 1
    50   30   49 1
    51   30   50 1
    52   30   51 1
    53   31   52 1
    54   31   53 1
    55   31   54 1
    56   32   33 1
    57   32   34 1
    58   32   55 1
    59   33   56 1
    60   33   57 1
    61   33   58 1
    62   34   59 1
    63   34   60 1
    64   34   61 1
@<TRIPOS>MOLECULE
CHEMBL399326__1
   61    64     0     0     0
SMALL
USER_CHARGES

@<TRIPOS>ATOM
      1 C1          0.3210    1.4998    0.0825 C.3       1 <0>        -0.1158
      2 C2          0.2515   -0.0053    0.0557 C.ar      1 <0>        -0.0786
      3 C3          0.1718   -0.6713   -1.1511 C.ar      1 <0>        -0.0827
      4 C4          0.1123   -2.0519   -1.1814 C.ar      1 <0>        -0.1083
      5 C5          0.1402   -2.7782    0.0024 C.ar      1 <0>         0.1606
      6 C6          0.2112   -2.1163    1.2193 C.ar      1 <0>        -0.1348
      7 C7          0.2734   -0.7255    1.2488 C.ar      1 <0>        -0.0071
      8 C8          0.3576   -0.0122    2.5467 C.ar      1 <0>        -0.0484
      9 C9          1.4822   -0.1611    3.3551 C.ar      1 <0>        -0.0657
     10 C10         1.5561    0.5051    4.5615 C.ar      1 <0>        -0.0386
     11 C11         0.5163    1.3208    4.9720 C.ar      1 <0>        -0.0797
     12 C12        -0.6040    1.4752    4.1780 C.ar      1 <0>        -0.1825
     13 C13        -0.6887    0.8170    2.9613 C.ar      1 <0>         0.0988
     14 O1         -1.7868    0.9727    2.1770 O.3       1 <0>        -0.3014
     15 C14        -2.8159    1.8356    2.6655 C.3       1 <0>         0.6003
     16 F1         -2.2982    3.1225    2.8471 F         1 <0>        -0.1653
     17 F2         -3.8645    1.8810    1.7405 F         1 <0>        -0.1346
     18 F3         -3.2924    1.3479    3.8871 F         1 <0>        -0.1667
     19 C15         2.7732    0.3432    5.4352 C.3       1 <0>        -0.1142
     20 C16         2.7162    0.9387    6.8434 C.3       1 <0>        -0.1557
     21 C17         3.5774    1.6019    5.7667 C.3       1 <0>        -0.1868
     22 C18         5.0729    1.4606    5.8870 C.2       1 <0>         0.5159
     23 O2          5.8051    2.3254    5.4371 O.co2     1 <0>        -0.6933
     24 O3          5.5506    0.4813    6.4341 O.co2     1 <0>        -0.6929
     25 N1          0.1177   -4.1757   -0.0288 N.am      1 <0>        -0.5444
     26 C19         0.3402   -4.8410   -1.1752 C.2       1 <0>         0.5245
     27 O4          0.2118   -6.0467   -1.2040 O.2       1 <0>        -0.5227
     28 C20         0.7467   -4.1048   -2.4242 C.3       1 <0>        -0.1320
     29 C21         0.0063   -2.7694   -2.5031 C.3       1 <0>        -0.0175
     30 C22         0.6289   -1.9063   -3.6023 C.3       1 <0>        -0.1416
     31 C23        -1.4672   -3.0221   -2.8286 C.3       1 <0>        -0.1393
     32 C24        -0.1509   -4.9233    1.2021 C.3       1 <0>         0.1283
     33 C25        -1.4193   -5.7601    1.0240 C.3       1 <0>        -0.1687
     34 C26         1.0307   -5.8466    1.5061 C.3       1 <0>        -0.1696
     35 H1          1.3632    1.8162    0.0421 H         1 <0>         0.0732
     36 H2         -0.2149    1.9037   -0.7764 H         1 <0>         0.0651
     37 H3         -0.1352    1.8682    1.0014 H         1 <0>         0.0682
     38 H4          0.1557   -0.1116   -2.0746 H         1 <0>         0.1331
     39 H5          0.2223   -2.6784    2.1414 H         1 <0>         0.1328
     40 H6          2.2953   -0.7974    3.0383 H         1 <0>         0.1391
     41 H7          0.5805    1.8389    5.9175 H         1 <0>         0.1361
     42 H8         -1.4125    2.1129    4.5038 H         1 <0>         0.1331
     43 H9          3.3259   -0.5871    5.3038 H         1 <0>         0.1163
     44 H10         1.7984    1.4476    7.1379 H         1 <0>         0.0848
     45 H11         3.2314    0.4001    7.6389 H         1 <0>         0.1017
     46 H12         3.2261    2.5471    5.3528 H         1 <0>         0.0934
     47 H13         1.8212   -3.9225   -2.4038 H         1 <0>         0.1026
     48 H14         0.4993   -4.7085   -3.2974 H         1 <0>         0.1063
     49 H15         1.6783   -1.7241   -3.3706 H         1 <0>         0.0632
     50 H16         0.5526   -2.4245   -4.5582 H         1 <0>         0.0623
     51 H17         0.0995   -0.9553   -3.6613 H         1 <0>         0.0658
     52 H18        -1.9946   -2.0701   -2.8883 H         1 <0>         0.0638
     53 H19        -1.5444   -3.5408   -3.7841 H         1 <0>         0.0628
     54 H20        -1.9123   -3.6355   -2.0451 H         1 <0>         0.0531
     55 H21        -0.2888   -4.2257    2.0282 H         1 <0>         0.0963
     56 H22        -2.2611   -5.1023    0.8074 H         1 <0>         0.0536
     57 H23        -1.2814   -6.4577    0.1979 H         1 <0>         0.0814
     58 H24        -1.6192   -6.3164    1.9398 H         1 <0>         0.0673
     59 H25         1.9344   -5.2505    1.6329 H         1 <0>         0.0586
     60 H26         0.8308   -6.4029    2.4219 H         1 <0>         0.0703
     61 H27         1.1686   -6.5442    0.6800 H         1 <0>         0.0761
@<TRIPOS>BOND
     1    1    2 1
     2    1   35 1
     3    1   36 1
     4    1   37 1
     5    2    7 ar
     6    2    3 ar
     7    3    4 ar
     8    3   38 1
     9    4   29 1
    10    4    5 ar
    11    5    6 ar
    12    5   25 1
    13    6    7 ar
    14    6   39 1
    15    7    8 1
    16    8   13 ar
    17    8    9 ar
    18    9   10 ar
    19    9   40 1
    20   10   11 ar
    21   10   19 1
    22   11   12 ar
    23   11   41 1
    24   12   13 ar
    25   12   42 1
    26   13   14 1
    27   14   15 1
    28   15   16 1
    29   15   17 1
    30   15   18 1
    31   19   21 1
    32   19   20 1
    33   19   43 1
    34   20   21 1
    35   20   44 1
    36   20   45 1
    37   21   22 1
    38   21   46 1
    39   22   23 2
    40   22   24 1
    41   25   26 am
    42   25   32 1
    43   26   27 2
    44   26   28 1
    45   28   29 1
    46   28   47 1
    47   28   48 1
    48   29   30 1
    49   29   31 1
    50   30   49 1
    51   30   50 1
    52   30   51 1
    53   31   52 1
    54   31   53 1
    55   31   54 1
    56   32   33 1
    57   32   34 1
    58   32   55 1
    59   33   56 1
    60   33   57 1
    61   33   58 1
    62   34   59 1
    63   34   60 1
    64   34   61 1
@<TRIPOS>MOLECULE
CHEMBL399326__2
   61    64     0     0     0
SMALL
USER_CHARGES

@<TRIPOS>ATOM
      1 C1          0.3210    1.4998    0.0825 C.3       1 <0>        -0.1137
      2 C2          0.2515   -0.0053    0.0557 C.ar      1 <0>        -0.0815
      3 C3          0.1718   -0.6713   -1.1511 C.ar      1 <0>        -0.0834
      4 C4          0.1123   -2.0519   -1.1814 C.ar      1 <0>        -0.1092
      5 C5          0.1402   -2.7782    0.0024 C.ar      1 <0>         0.1626
      6 C6          0.2112   -2.1163    1.2193 C.ar      1 <0>        -0.1340
      7 C7          0.2734   -0.7255    1.2488 C.ar      1 <0>        -0.0065
      8 C8          0.3576   -0.0122    2.5467 C.ar      1 <0>        -0.0488
      9 C9          1.4822   -0.1611    3.3551 C.ar      1 <0>        -0.0643
     10 C10         1.5561    0.5051    4.5615 C.ar      1 <0>        -0.0366
     11 C11         0.5163    1.3208    4.9720 C.ar      1 <0>        -0.0819
     12 C12        -0.6040    1.4752    4.1780 C.ar      1 <0>        -0.1829
     13 C13        -0.6887    0.8170    2.9613 C.ar      1 <0>         0.0978
     14 O1         -1.7868    0.9727    2.1770 O.3       1 <0>        -0.3014
     15 C14        -2.8159    1.8356    2.6655 C.3       1 <0>         0.6003
     16 F1         -2.2982    3.1225    2.8471 F         1 <0>        -0.1665
     17 F2         -3.8645    1.8810    1.7405 F         1 <0>        -0.1348
     18 F3         -3.2924    1.3479    3.8871 F         1 <0>        -0.1658
     19 C15         2.7732    0.3432    5.4352 C.3       1 <0>        -0.1180
     20 C16         2.8916    1.2555    6.6578 C.3       1 <0>        -0.1609
     21 C17         2.5642   -0.2280    6.8391 C.3       1 <0>        -0.1787
     22 C18         3.6461   -1.1163    7.3972 C.2       1 <0>         0.5161
     23 O2          3.8408   -1.1577    8.6000 O.co2     1 <0>        -0.6922
     24 O3          4.3268   -1.7935    6.6458 O.co2     1 <0>        -0.6902
     25 N1          0.1177   -4.1757   -0.0288 N.am      1 <0>        -0.5441
     26 C19         0.3402   -4.8410   -1.1752 C.2       1 <0>         0.5239
     27 O4          0.2118   -6.0467   -1.2040 O.2       1 <0>        -0.5219
     28 C20         0.7467   -4.1048   -2.4242 C.3       1 <0>        -0.1318
     29 C21         0.0063   -2.7694   -2.5031 C.3       1 <0>        -0.0174
     30 C22        -1.4672   -3.0221   -2.8286 C.3       1 <0>        -0.1395
     31 C23         0.6289   -1.9063   -3.6023 C.3       1 <0>        -0.1409
     32 C24        -0.1509   -4.9233    1.2021 C.3       1 <0>         0.1276
     33 C25        -1.4193   -5.7601    1.0240 C.3       1 <0>        -0.1683
     34 C26         1.0307   -5.8466    1.5061 C.3       1 <0>        -0.1698
     35 H1          1.3632    1.8162    0.0421 H         1 <0>         0.0707
     36 H2         -0.2149    1.9037   -0.7764 H         1 <0>         0.0644
     37 H3         -0.1352    1.8682    1.0014 H         1 <0>         0.0681
     38 H4          0.1557   -0.1116   -2.0746 H         1 <0>         0.1324
     39 H5          0.2223   -2.6784    2.1414 H         1 <0>         0.1343
     40 H6          2.2953   -0.7974    3.0383 H         1 <0>         0.1406
     41 H7          0.5805    1.8389    5.9175 H         1 <0>         0.1356
     42 H8         -1.4125    2.1129    4.5038 H         1 <0>         0.1326
     43 H9          3.6932    0.0762    4.9151 H         1 <0>         0.1181
     44 H10         3.8896    1.5890    6.9421 H         1 <0>         0.0929
     45 H11         2.0892    1.9727    6.8301 H         1 <0>         0.0873
     46 H12         1.5463   -0.4867    7.1308 H         1 <0>         0.0956
     47 H13         1.8212   -3.9225   -2.4038 H         1 <0>         0.1023
     48 H14         0.4993   -4.7085   -3.2974 H         1 <0>         0.1061
     49 H15        -1.9946   -2.0701   -2.8883 H         1 <0>         0.0635
     50 H16        -1.5444   -3.5408   -3.7841 H         1 <0>         0.0627
     51 H17        -1.9123   -3.6355   -2.0451 H         1 <0>         0.0535
     52 H18         1.6783   -1.7241   -3.3706 H         1 <0>         0.0626
     53 H19         0.5526   -2.4245   -4.5582 H         1 <0>         0.0621
     54 H20         0.0995   -0.9553   -3.6613 H         1 <0>         0.0654
     55 H21        -0.2888   -4.2257    2.0282 H         1 <0>         0.0970
     56 H22        -2.2611   -5.1023    0.8074 H         1 <0>         0.0531
     57 H23        -1.2814   -6.4577    0.1979 H         1 <0>         0.0811
     58 H24        -1.6192   -6.3164    1.9398 H         1 <0>         0.0681
     59 H25         1.9344   -5.2505    1.6329 H         1 <0>         0.0595
     60 H26         0.8308   -6.4029    2.4219 H         1 <0>         0.0717
     61 H27         1.1686   -6.5442    0.6800 H         1 <0>         0.0754
@<TRIPOS>BOND
     1    1    2 1
     2    1   35 1
     3    1   36 1
     4    1   37 1
     5    2    7 ar
     6    2    3 ar
     7    3    4 ar
     8    3   38 1
     9    4   29 1
    10    4    5 ar
    11    5    6 ar
    12    5   25 1
    13    6    7 ar
    14    6   39 1
    15    7    8 1
    16    8   13 ar
    17    8    9 ar
    18    9   10 ar
    19    9   40 1
    20   10   11 ar
    21   10   19 1
    22   11   12 ar
    23   11   41 1
    24   12   13 ar
    25   12   42 1
    26   13   14 1
    27   14   15 1
    28   15   16 1
    29   15   17 1
    30   15   18 1
    31   19   21 1
    32   19   20 1
    33   19   43 1
    34   20   21 1
    35   20   44 1
    36   20   45 1
    37   21   22 1
    38   21   46 1
    39   22   23 2
    40   22   24 1
    41   25   26 am
    42   25   32 1
    43   26   27 2
    44   26   28 1
    45   28   29 1
    46   28   47 1
    47   28   48 1
    48   29   30 1
    49   29   31 1
    50   30   49 1
    51   30   50 1
    52   30   51 1
    53   31   52 1
    54   31   53 1
    55   31   54 1
    56   32   33 1
    57   32   34 1
    58   32   55 1
    59   33   56 1
    60   33   57 1
    61   33   58 1
    62   34   59 1
    63   34   60 1
    64   34   61 1
@<TRIPOS>MOLECULE
CHEMBL399326__3
   61    64     0     0     0
SMALL
USER_CHARGES

@<TRIPOS>ATOM
      1 C1          0.3210    1.4998    0.0825 C.3       1 <0>        -0.1122
      2 C2          0.2515   -0.0053    0.0557 C.ar      1 <0>        -0.0847
      3 C3          0.1718   -0.6713   -1.1511 C.ar      1 <0>        -0.0845
      4 C4          0.1123   -2.0519   -1.1814 C.ar      1 <0>        -0.1147
      5 C5          0.1402   -2.7782    0.0024 C.ar      1 <0>         0.1599
      6 C6          0.2112   -2.1163    1.2193 C.ar      1 <0>        -0.1372
      7 C7          0.2734   -0.7255    1.2488 C.ar      1 <0>         0.0087
      8 C8          0.3576   -0.0122    2.5467 C.ar      1 <0>        -0.0853
      9 C9          1.4822   -0.1611    3.3551 C.ar      1 <0>        -0.0653
     10 C10         1.5561    0.5051    4.5615 C.ar      1 <0>        -0.0647
     11 C11         0.5163    1.3208    4.9720 C.ar      1 <0>         0.0263
     12 C12        -0.6040    1.4752    4.1780 C.ar      1 <0>        -0.2060
     13 C13        -0.6887    0.8170    2.9613 C.ar      1 <0>         0.1107
     14 O1         -1.7868    0.9727    2.1770 O.3       1 <0>        -0.3060
     15 C14        -2.8159    1.8356    2.6655 C.3       1 <0>         0.5998
     16 F1         -2.2982    3.1225    2.8471 F         1 <0>        -0.1681
     17 F2         -3.8645    1.8810    1.7405 F         1 <0>        -0.1395
     18 F3         -3.2924    1.3479    3.8871 F         1 <0>        -0.1619
     19 C15         2.7732    0.3432    5.4352 C.3       1 <0>        -0.1060
     20 C16         2.8916    1.2555    6.6578 C.3       1 <0>        -0.1614
     21 C17         2.5642   -0.2280    6.8391 C.3       1 <0>        -0.2001
     22 C18         1.1569   -0.5857    7.2424 C.2       1 <0>         0.5170
     23 O2          0.9464   -1.5986    7.8876 O.co2     1 <0>        -0.6914
     24 O3          0.2288    0.1378    6.9234 O.co2     1 <0>        -0.6760
     25 N1          0.1177   -4.1757   -0.0288 N.am      1 <0>        -0.5430
     26 C19         0.3402   -4.8410   -1.1752 C.2       1 <0>         0.5233
     27 O4          0.2118   -6.0467   -1.2040 O.2       1 <0>        -0.5250
     28 C20         0.7467   -4.1048   -2.4242 C.3       1 <0>        -0.1307
     29 C21         0.0063   -2.7694   -2.5031 C.3       1 <0>        -0.0164
     30 C22        -1.4672   -3.0221   -2.8286 C.3       1 <0>        -0.1396
     31 C23         0.6289   -1.9063   -3.6023 C.3       1 <0>        -0.1400
     32 C24        -0.1509   -4.9233    1.2021 C.3       1 <0>         0.1263
     33 C25        -1.4193   -5.7601    1.0240 C.3       1 <0>        -0.1681
     34 C26         1.0307   -5.8466    1.5061 C.3       1 <0>        -0.1676
     35 H1          1.3632    1.8162    0.0421 H         1 <0>         0.0681
     36 H2         -0.2149    1.9037   -0.7764 H         1 <0>         0.0618
     37 H3         -0.1352    1.8682    1.0014 H         1 <0>         0.0710
     38 H4          0.1557   -0.1116   -2.0746 H         1 <0>         0.1302
     39 H5          0.2223   -2.6784    2.1414 H         1 <0>         0.1328
     40 H6          2.2953   -0.7974    3.0383 H         1 <0>         0.1262
     41 H7          0.5805    1.8389    5.9175 H         1 <0>         0.1488
     42 H8         -1.4125    2.1129    4.5038 H         1 <0>         0.1268
     43 H9          3.6932    0.0762    4.9151 H         1 <0>         0.1023
     44 H10         3.8896    1.5890    6.9421 H         1 <0>         0.0860
     45 H11         2.0892    1.9727    6.8301 H         1 <0>         0.0995
     46 H12         3.3467   -0.8705    7.2428 H         1 <0>         0.0943
     47 H13         1.8212   -3.9225   -2.4038 H         1 <0>         0.1007
     48 H14         0.4993   -4.7085   -3.2974 H         1 <0>         0.1048
     49 H15        -1.9946   -2.0701   -2.8883 H         1 <0>         0.0636
     50 H16        -1.5444   -3.5408   -3.7841 H         1 <0>         0.0615
     51 H17        -1.9123   -3.6355   -2.0451 H         1 <0>         0.0535
     52 H18         1.6783   -1.7241   -3.3706 H         1 <0>         0.0616
     53 H19         0.5526   -2.4245   -4.5582 H         1 <0>         0.0608
     54 H20         0.0995   -0.9553   -3.6613 H         1 <0>         0.0654
     55 H21        -0.2888   -4.2257    2.0282 H         1 <0>         0.0988
     56 H22        -2.2611   -5.1023    0.8074 H         1 <0>         0.0539
     57 H23        -1.2814   -6.4577    0.1979 H         1 <0>         0.0803
     58 H24        -1.6192   -6.3164    1.9398 H         1 <0>         0.0681
     59 H25         1.9344   -5.2505    1.6329 H         1 <0>         0.0567
     60 H26         0.8308   -6.4029    2.4219 H         1 <0>         0.0710
     61 H27         1.1686   -6.5442    0.6800 H         1 <0>         0.0749
@<TRIPOS>BOND
     1    1    2 1
     2    1   35 1
     3    1   36 1
     4    1   37 1
     5    2    7 ar
     6    2    3 ar
     7    3    4 ar
     8    3   38 1
     9    4   29 1
    10    4    5 ar
    11    5    6 ar
    12    5   25 1
    13    6    7 ar
    14    6   39 1
    15    7    8 1
    16    8   13 ar
    17    8    9 ar
    18    9   10 ar
    19    9   40 1
    20   10   11 ar
    21   10   19 1
    22   11   12 ar
    23   11   41 1
    24   12   13 ar
    25   12   42 1
    26   13   14 1
    27   14   15 1
    28   15   16 1
    29   15   17 1
    30   15   18 1
    31   19   21 1
    32   19   20 1
    33   19   43 1
    34   20   21 1
    35   20   44 1
    36   20   45 1
    37   21   22 1
    38   21   46 1
    39   22   23 2
    40   22   24 1
    41   25   26 am
    42   25   32 1
    43   26   27 2
    44   26   28 1
    45   28   29 1
    46   28   47 1
    47   28   48 1
    48   29   30 1
    49   29   31 1
    50   30   49 1
    51   30   50 1
    52   30   51 1
    53   31   52 1
    54   31   53 1
    55   31   54 1
    56   32   33 1
    57   32   34 1
    58   32   55 1
    59   33   56 1
    60   33   57 1
    61   33   58 1
    62   34   59 1
    63   34   60 1
    64   34   61 1
@<TRIPOS>MOLECULE
CHEMBL340555
   57    58     0     0     0
SMALL
USER_CHARGES

@<TRIPOS>ATOM
      1 C1         -0.2488    1.1657    0.1025 C.3       1 <0>        -0.1438
      2 C2         -0.2435   -0.3438    0.3525 C.3       1 <0>        -0.0544
      3 C3          0.2331   -1.0679   -0.9082 C.3       1 <0>        -0.1464
      4 C4          0.6864   -0.6604    1.4954 C.ar      1 <0>        -0.0738
      5 C5          2.0221   -0.3260    1.4074 C.ar      1 <0>        -0.0951
      6 C6          2.8836   -0.6186    2.4647 C.ar      1 <0>        -0.0241
      7 C7          2.3846   -1.2513    3.6105 C.ar      1 <0>         0.0976
      8 C8          1.0412   -1.5805    3.6836 C.ar      1 <0>        -0.0815
      9 C9          0.1960   -1.2803    2.6315 C.ar      1 <0>        -0.1040
     10 C10         0.4990   -2.2612    4.9139 C.3       1 <0>        -0.0598
     11 C11        -0.5878   -1.3873    5.5432 C.3       1 <0>        -0.1415
     12 C12        -0.0969   -3.6160    4.5264 C.3       1 <0>        -0.1420
     13 O1          3.2148   -1.5411    4.6456 O.3       1 <0>        -0.3040
     14 C13         3.3617   -0.5437    5.6584 C.3       1 <0>         0.0142
     15 C14         4.3283   -1.0462    6.7327 C.3       1 <0>         0.2723
     16 F1          3.8225   -2.2192    7.3032 F         1 <0>        -0.1970
     17 F2          5.5741   -1.3092    6.1530 F         1 <0>        -0.1915
     18 C15         4.3166   -0.2632    2.3763 C.2       1 <0>        -0.1207
     19 C16         4.7237    1.0563    2.3197 C.2       1 <0>        -0.1277
     20 C17         6.0489    1.3418    2.2389 C.2       1 <0>        -0.2071
     21 S1          6.8001   -0.2767    2.2391 S.3       1 <0>         0.0540
     22 C18         5.3110   -1.2547    2.3528 C.2       1 <0>        -0.0394
     23 C19         5.1703   -2.6539    2.4038 C.2       1 <0>        -0.1063
     24 C20         6.2769   -3.4533    2.3682 C.2       1 <0>        -0.0546
     25 C21         6.1368   -4.8454    2.4190 C.2       1 <0>        -0.0833
     26 C22         7.2529   -5.6515    2.3831 C.2       1 <0>        -0.1212
     27 C23         7.1099   -7.0427    2.2768 C.2       1 <0>         0.4385
     28 O2          5.9017   -7.5768    2.0891 O.co2     1 <0>        -0.6873
     29 O3          8.1822   -7.8321    2.3634 O.co2     1 <0>        -0.7131
     30 C24         4.7649   -5.4617    2.5130 C.3       1 <0>        -0.0993
     31 H1          0.7594    1.4962   -0.1471 H         1 <0>         0.0568
     32 H2         -0.9213    1.3947   -0.7241 H         1 <0>         0.0570
     33 H3         -0.5883    1.6815    1.0007 H         1 <0>         0.0545
     34 H4         -1.2517   -0.6743    0.6022 H         1 <0>         0.0769
     35 H5          1.2413   -0.7374   -1.1579 H         1 <0>         0.0577
     36 H6          0.2369   -2.1432   -0.7301 H         1 <0>         0.0587
     37 H7         -0.4395   -0.8389   -1.7349 H         1 <0>         0.0570
     38 H8          2.4001    0.1613    0.5208 H         1 <0>         0.1249
     39 H9         -0.8517   -1.5349    2.6947 H         1 <0>         0.1240
     40 H10         1.3057   -2.4109    5.6316 H         1 <0>         0.0865
     41 H11        -0.9799   -1.8796    6.4331 H         1 <0>         0.0587
     42 H12        -0.1632   -0.4220    5.8193 H         1 <0>         0.0501
     43 H13        -1.3944   -1.2375    4.8255 H         1 <0>         0.0561
     44 H14         0.6774   -4.2387    4.0781 H         1 <0>         0.0615
     45 H15        -0.4890   -4.1084    5.4163 H         1 <0>         0.0581
     46 H16        -0.9035   -3.4663    3.8087 H         1 <0>         0.0541
     47 H17         3.7558    0.3702    5.2139 H         1 <0>         0.0807
     48 H18         2.3911   -0.3389    6.1100 H         1 <0>         0.0795
     49 H19         4.4403   -0.2855    7.5052 H         1 <0>         0.1217
     50 H20         3.9948    1.8530    2.3391 H         1 <0>         0.1264
     51 H21         6.5286    2.3080    2.1874 H         1 <0>         0.1805
     52 H22         4.1870   -3.0956    2.4712 H         1 <0>         0.1416
     53 H23         7.2602   -3.0116    2.3008 H         1 <0>         0.1116
     54 H24         8.2381   -5.2124    2.4368 H         1 <0>         0.1105
     55 H25         4.4180   -5.7302    1.5151 H         1 <0>         0.0656
     56 H26         4.8100   -6.3559    3.1348 H         1 <0>         0.0960
     57 H27         4.0742   -4.7449    2.9570 H         1 <0>         0.0357
@<TRIPOS>BOND
     1    1    2 1
     2    1   31 1
     3    1   32 1
     4    1   33 1
     5    2    3 1
     6    2    4 1
     7    2   34 1
     8    3   35 1
     9    3   36 1
    10    3   37 1
    11    4    9 ar
    12    4    5 ar
    13    5    6 ar
    14    5   38 1
    15    6    7 ar
    16    6   18 1
    17    7    8 ar
    18    7   13 1
    19    8    9 ar
    20    8   10 1
    21    9   39 1
    22   10   11 1
    23   10   12 1
    24   10   40 1
    25   11   41 1
    26   11   42 1
    27   11   43 1
    28   12   44 1
    29   12   45 1
    30   12   46 1
    31   13   14 1
    32   14   15 1
    33   14   47 1
    34   14   48 1
    35   15   16 1
    36   15   17 1
    37   15   49 1
    38   18   22 2
    39   18   19 1
    40   19   20 2
    41   19   50 1
    42   20   21 1
    43   20   51 1
    44   21   22 1
    45   22   23 1
    46   23   24 2
    47   23   52 1
    48   24   25 1
    49   24   53 1
    50   25   26 2
    51   25   30 1
    52   26   27 1
    53   26   54 1
    54   27   28 2
    55   27   29 1
    56   30   55 1
    57   30   56 1
    58   30   57 1
@<TRIPOS>MOLECULE
CHEMBL69091
   57    59     0     0     0
SMALL
USER_CHARGES

@<TRIPOS>ATOM
      1 C1         -0.7778    1.3562    0.0881 C.3       1 <0>        -0.0914
      2 C2         -0.2263   -0.0448    0.0255 C.2       1 <0>        -0.0936
      3 C3          0.1247   -0.6865    1.1664 C.2       1 <0>        -0.1814
      4 C4          0.1271    0.0097    2.3968 C.2       1 <0>         0.4996
      5 O1         -0.0733    1.2182    2.4172 O.co2     1 <0>        -0.6860
      6 O2          0.3295   -0.5956    3.4427 O.co2     1 <0>        -0.7057
      7 C5         -0.0700   -0.7119   -1.2660 C.2       1 <0>        -0.0925
      8 C6         -0.4159   -0.0797   -2.3901 C.2       1 <0>        -0.1470
      9 C7         -0.2548   -0.7673   -3.7214 C.3       1 <0>        -0.1021
     10 C8         -0.4749    0.0723   -4.9813 C.3       1 <0>        -0.1573
     11 C9         -1.5130   -0.9726   -4.5673 C.3       1 <0>        -0.0837
     12 C10        -2.8385   -0.4641   -3.9968 C.3       1 <0>        -0.1117
     13 C11        -1.5999   -2.2315   -5.3910 C.ar      1 <0>        -0.0374
     14 C12        -0.5695   -3.1529   -5.3607 C.ar      1 <0>        -0.1211
     15 C13        -0.6551   -4.3013   -6.1198 C.ar      1 <0>        -0.1148
     16 C14        -1.7692   -4.5412   -6.9140 C.ar      1 <0>        -0.0699
     17 C15        -2.7974   -3.6263   -6.9403 C.ar      1 <0>        -0.0602
     18 C16        -2.7103   -2.4712   -6.1735 C.ar      1 <0>        -0.1123
     19 C17        -4.0415   -3.8284   -7.7652 C.3       1 <0>        -0.0224
     20 C18        -3.8064   -4.8857   -8.8420 C.3       1 <0>        -0.1108
     21 C19        -3.2165   -6.1336   -8.1745 C.3       1 <0>        -0.1116
     22 C20        -1.7934   -5.8115   -7.7232 C.3       1 <0>        -0.0222
     23 C21        -1.2619   -6.9641   -6.8689 C.3       1 <0>        -0.1425
     24 C22        -0.8999   -5.6429   -8.9537 C.3       1 <0>        -0.1384
     25 C23        -5.1831   -4.2824   -6.8533 C.3       1 <0>        -0.1398
     26 C24        -4.4251   -2.5059   -8.4320 C.3       1 <0>        -0.1419
     27 H1          0.0455    2.0689    0.1371 H         1 <0>         0.0621
     28 H2         -1.3751    1.5517   -0.8024 H         1 <0>         0.0295
     29 H3         -1.4027    1.4614    0.9750 H         1 <0>         0.0880
     30 H4          0.4026   -1.7296    1.1356 H         1 <0>         0.0957
     31 H5          0.3252   -1.7160   -1.3109 H         1 <0>         0.1062
     32 H6         -0.8111    0.9244   -2.3452 H         1 <0>         0.1175
     33 H7          0.5100   -1.5430   -3.7604 H         1 <0>         0.1075
     34 H8         -0.7363    1.1220   -4.8473 H         1 <0>         0.0988
     35 H9          0.1452   -0.1508   -5.8495 H         1 <0>         0.0933
     36 H10        -2.7745    0.6115   -3.8322 H         1 <0>         0.0611
     37 H11        -3.6426   -0.6766   -4.7014 H         1 <0>         0.0577
     38 H12        -3.0428   -0.9649   -3.0505 H         1 <0>         0.0643
     39 H13         0.2996   -2.9738   -4.7450 H         1 <0>         0.1218
     40 H14         0.1509   -5.0198   -6.0967 H         1 <0>         0.1199
     41 H15        -3.5163   -1.7528   -6.1939 H         1 <0>         0.1230
     42 H16        -4.7522   -5.1382   -9.3212 H         1 <0>         0.0656
     43 H17        -3.1080   -4.5027   -9.5861 H         1 <0>         0.0679
     44 H18        -3.8220   -6.4089   -7.3109 H         1 <0>         0.0687
     45 H19        -3.1978   -6.9574   -8.8879 H         1 <0>         0.0654
     46 H20        -1.8900   -7.0815   -5.9859 H         1 <0>         0.0568
     47 H21        -1.2778   -7.8854   -7.4513 H         1 <0>         0.0565
     48 H22        -0.2391   -6.7466   -6.5610 H         1 <0>         0.0587
     49 H23         0.1210   -5.4320   -8.6353 H         1 <0>         0.0553
     50 H24        -0.9148   -6.5604   -9.5420 H         1 <0>         0.0564
     51 H25        -1.2693   -4.8162   -9.5605 H         1 <0>         0.0574
     52 H26        -5.3672   -3.5212   -6.0951 H         1 <0>         0.0568
     53 H27        -6.0855   -4.4298   -7.4467 H         1 <0>         0.0569
     54 H28        -4.9101   -5.2196   -6.3683 H         1 <0>         0.0580
     55 H29        -3.6103   -2.1736   -9.0752 H         1 <0>         0.0557
     56 H30        -5.3253   -2.6481   -9.0300 H         1 <0>         0.0567
     57 H31        -4.6130   -1.7537   -7.6658 H         1 <0>         0.0591
@<TRIPOS>BOND
     1    1    2 1
     2    1   27 1
     3    1   28 1
     4    1   29 1
     5    2    3 2
     6    2    7 1
     7    3    4 1
     8    3   30 1
     9    4    5 2
    10    4    6 1
    11    7    8 2
    12    7   31 1
    13    8    9 1
    14    8   32 1
    15    9   11 1
    16    9   10 1
    17    9   33 1
    18   10   11 1
    19   10   34 1
    20   10   35 1
    21   11   12 1
    22   11   13 1
    23   12   36 1
    24   12   37 1
    25   12   38 1
    26   13   18 ar
    27   13   14 ar
    28   14   15 ar
    29   14   39 1
    30   15   16 ar
    31   15   40 1
    32   16   22 1
    33   16   17 ar
    34   17   18 ar
    35   17   19 1
    36   18   41 1
    37   19   20 1
    38   19   25 1
    39   19   26 1
    40   20   21 1
    41   20   42 1
    42   20   43 1
    43   21   22 1
    44   21   44 1
    45   21   45 1
    46   22   23 1
    47   22   24 1
    48   23   46 1
    49   23   47 1
    50   23   48 1
    51   24   49 1
    52   24   50 1
    53   24   51 1
    54   25   52 1
    55   25   53 1
    56   25   54 1
    57   26   55 1
    58   26   56 1
    59   26   57 1
@<TRIPOS>MOLECULE
CHEMBL69091__1
   57    59     0     0     0
SMALL
USER_CHARGES

@<TRIPOS>ATOM
      1 C1         -0.5891    4.3496   -3.9890 C.3       1 <0>        -0.0902
      2 C2          0.6653    3.5733   -3.6813 C.2       1 <0>        -0.0880
      3 C3          1.7281    4.1982   -3.1187 C.2       1 <0>        -0.1853
      4 C4          1.7214    5.6034   -2.9644 C.2       1 <0>         0.5001
      5 O1          0.8057    6.2671   -3.4357 O.co2     1 <0>        -0.6862
      6 O2          2.6315    6.1576   -2.3595 O.co2     1 <0>        -0.7070
      7 C5          0.7358    2.1459   -3.9899 C.2       1 <0>        -0.0977
      8 C6         -0.3112    1.5302   -4.5443 C.2       1 <0>        -0.1382
      9 C7         -0.2386    0.0590   -4.8623 C.3       1 <0>        -0.0994
     10 C8         -1.4133   -0.5580   -5.6241 C.3       1 <0>        -0.1632
     11 C9         -1.2165   -0.8693   -4.1391 C.3       1 <0>        -0.0835
     12 C10        -0.7205   -2.2689   -3.7704 C.3       1 <0>        -0.1083
     13 C11        -2.1786   -0.2423   -3.1633 C.ar      1 <0>        -0.0414
     14 C12        -1.7068    0.3430   -2.0029 C.ar      1 <0>        -0.0977
     15 C13        -2.5940    0.9121   -1.1132 C.ar      1 <0>        -0.1149
     16 C14        -3.9584    0.9037   -1.3739 C.ar      1 <0>        -0.0640
     17 C15        -4.4277    0.3254   -2.5317 C.ar      1 <0>        -0.0653
     18 C16        -3.5324   -0.2454   -3.4274 C.ar      1 <0>        -0.1117
     19 C17        -5.8913    0.2942   -2.8867 C.3       1 <0>        -0.0213
     20 C18        -6.7496    0.5599   -1.6517 C.3       1 <0>        -0.1100
     21 C19        -6.2367    1.8344   -0.9709 C.3       1 <0>        -0.1119
     22 C20        -4.8710    1.5358   -0.3558 C.3       1 <0>        -0.0224
     23 C21        -5.0478    0.5799    0.8257 C.3       1 <0>        -0.1373
     24 C22        -4.2454    2.8406    0.1413 C.3       1 <0>        -0.1444
     25 C23        -6.1778    1.3660   -3.9403 C.3       1 <0>        -0.1397
     26 C24        -6.2423   -1.0808   -3.4586 C.3       1 <0>        -0.1401
     27 H1         -0.4800    4.8499   -4.9512 H         1 <0>         0.0600
     28 H2         -1.4382    3.6672   -4.0285 H         1 <0>         0.0288
     29 H3         -0.7566    5.0932   -3.2098 H         1 <0>         0.0881
     30 H4          2.5800    3.6226   -2.7881 H         1 <0>         0.0945
     31 H5          1.6348    1.5896   -3.7694 H         1 <0>         0.1053
     32 H6         -1.2103    2.0866   -4.7647 H         1 <0>         0.1146
     33 H7          0.7582   -0.3273   -5.0750 H         1 <0>         0.1067
     34 H8         -2.2387    0.1003   -5.8953 H         1 <0>         0.0950
     35 H9         -1.1894   -1.3503   -6.3384 H         1 <0>         0.0950
     36 H10         0.1413   -2.1862   -3.1082 H         1 <0>         0.0600
     37 H11        -1.5166   -2.8148   -3.2641 H         1 <0>         0.0597
     38 H12        -0.4329   -2.8028   -4.6761 H         1 <0>         0.0583
     39 H13        -0.6473    0.3542   -1.7936 H         1 <0>         0.1181
     40 H14        -2.2249    1.3678   -0.2063 H         1 <0>         0.1201
     41 H15        -3.8998   -0.6996   -4.3357 H         1 <0>         0.1179
     42 H16        -7.7892    0.6959   -1.9495 H         1 <0>         0.0642
     43 H17        -6.6716   -0.2810   -0.9626 H         1 <0>         0.0670
     44 H18        -6.1408    2.6313   -1.7083 H         1 <0>         0.0696
     45 H19        -6.9328    2.1386   -0.1893 H         1 <0>         0.0649
     46 H20        -4.0772    0.3797    1.2795 H         1 <0>         0.0553
     47 H21        -5.7078    1.0340    1.5648 H         1 <0>         0.0558
     48 H22        -5.4845   -0.3550    0.4744 H         1 <0>         0.0558
     49 H23        -4.1085    3.5212   -0.6990 H         1 <0>         0.0597
     50 H24        -4.9030    3.3012    0.8785 H         1 <0>         0.0559
     51 H25        -3.2788    2.6290    0.5986 H         1 <0>         0.0598
     52 H26        -5.5815    1.1684   -4.8311 H         1 <0>         0.0555
     53 H27        -7.2362    1.3465   -4.1999 H         1 <0>         0.0555
     54 H28        -5.9197    2.3466   -3.5405 H         1 <0>         0.0598
     55 H29        -6.0304   -1.8487   -2.7146 H         1 <0>         0.0546
     56 H30        -7.3010   -1.1074   -3.7169 H         1 <0>         0.0551
     57 H31        -5.6457   -1.2659   -4.3519 H         1 <0>         0.0580
@<TRIPOS>BOND
     1    1    2 1
     2    1   27 1
     3    1   28 1
     4    1   29 1
     5    2    3 2
     6    2    7 1
     7    3    4 1
     8    3   30 1
     9    4    5 2
    10    4    6 1
    11    7    8 2
    12    7   31 1
    13    8    9 1
    14    8   32 1
    15    9   11 1
    16    9   10 1
    17    9   33 1
    18   10   11 1
    19   10   34 1
    20   10   35 1
    21   11   12 1
    22   11   13 1
    23   12   36 1
    24   12   37 1
    25   12   38 1
    26   13   18 ar
    27   13   14 ar
    28   14   15 ar
    29   14   39 1
    30   15   16 ar
    31   15   40 1
    32   16   22 1
    33   16   17 ar
    34   17   18 ar
    35   17   19 1
    36   18   41 1
    37   19   20 1
    38   19   25 1
    39   19   26 1
    40   20   21 1
    41   20   42 1
    42   20   43 1
    43   21   22 1
    44   21   44 1
    45   21   45 1
    46   22   23 1
    47   22   24 1
    48   23   46 1
    49   23   47 1
    50   23   48 1
    51   24   49 1
    52   24   50 1
    53   24   51 1
    54   25   52 1
    55   25   53 1
    56   25   54 1
    57   26   55 1
    58   26   56 1
    59   26   57 1
@<TRIPOS>MOLECULE
CHEMBL69091__2
   57    59     0     0     0
SMALL
USER_CHARGES

@<TRIPOS>ATOM
      1 C1         -1.5455    4.1870   -4.3754 C.3       1 <0>        -0.0885
      2 C2         -1.7825    3.1323   -3.3254 C.2       1 <0>        -0.0885
      3 C3         -2.3636    3.4672   -2.1478 C.2       1 <0>        -0.1854
      4 C4         -2.5947    4.8262   -1.8348 C.2       1 <0>         0.5001
      5 O1         -2.1705    5.7060   -2.5747 O.co2     1 <0>        -0.6860
      6 O2         -3.2192    5.1244   -0.8237 O.co2     1 <0>        -0.7070
      7 C5         -1.3854    1.7480   -3.5771 C.2       1 <0>        -0.0985
      8 C6         -0.8128    1.4181   -4.7373 C.2       1 <0>        -0.1382
      9 C7         -0.4035   -0.0088   -4.9967 C.3       1 <0>        -0.0994
     10 C8         -0.0531   -0.3928   -6.4357 C.3       1 <0>        -0.1625
     11 C9          1.0534   -0.2661   -5.3866 C.3       1 <0>        -0.0838
     12 C10         1.7017   -1.5577   -4.8841 C.3       1 <0>        -0.1083
     13 C11         1.9693    0.9268   -5.4818 C.ar      1 <0>        -0.0421
     14 C12         2.2734    1.6600   -4.3498 C.ar      1 <0>        -0.0978
     15 C13         3.1101    2.7524   -4.4456 C.ar      1 <0>        -0.1146
     16 C14         3.6516    3.1216   -5.6704 C.ar      1 <0>        -0.0634
     17 C15         3.3529    2.3886   -6.7967 C.ar      1 <0>        -0.0656
     18 C16         2.5116    1.2876   -6.6977 C.ar      1 <0>        -0.1118
     19 C17         3.9163    2.7213   -8.1534 C.3       1 <0>        -0.0208
     20 C18         4.4492    4.1524   -8.1778 C.3       1 <0>        -0.1122
     21 C19         5.3890    4.3394   -6.9810 C.3       1 <0>        -0.1096
     22 C20         4.5509    4.3295   -5.7041 C.3       1 <0>        -0.0227
     23 C21         3.6956    5.5971   -5.6522 C.3       1 <0>        -0.1413
     24 C22         5.4815    4.2998   -4.4900 C.3       1 <0>        -0.1417
     25 C23         2.8159    2.5747   -9.2064 C.3       1 <0>        -0.1420
     26 C24         5.0557    1.7531   -8.4777 C.3       1 <0>        -0.1373
     27 H1         -0.6150    4.7120   -4.1596 H         1 <0>         0.0612
     28 H2         -1.4774    3.7150   -5.3556 H         1 <0>         0.0279
     29 H3         -2.3727    4.8968   -4.3707 H         1 <0>         0.0864
     30 H4         -2.6502    2.6957   -1.4484 H         1 <0>         0.0946
     31 H5         -1.5552    0.9922   -2.8245 H         1 <0>         0.1055
     32 H6         -0.6430    2.1739   -5.4898 H         1 <0>         0.1150
     33 H7         -0.9000   -0.7595   -4.3819 H         1 <0>         0.1063
     34 H8         -0.3192   -1.3962   -6.7679 H         1 <0>         0.0952
     35 H9         -0.1185    0.3867   -7.1947 H         1 <0>         0.0951
     36 H10         1.1461   -2.4149   -5.2644 H         1 <0>         0.0582
     37 H11         2.7322   -1.6077   -5.2357 H         1 <0>         0.0597
     38 H12         1.6886   -1.5707   -3.7943 H         1 <0>         0.0601
     39 H13         1.8570    1.3786   -3.3938 H         1 <0>         0.1182
     40 H14         3.3460    3.3255   -3.5611 H         1 <0>         0.1204
     41 H15         2.2765    0.7122   -7.5809 H         1 <0>         0.1179
     42 H16         4.9964    4.3245   -9.1046 H         1 <0>         0.0641
     43 H17         3.6187    4.8546   -8.1055 H         1 <0>         0.0700
     44 H18         6.1125    3.5246   -6.9515 H         1 <0>         0.0664
     45 H19         5.9115    5.2918   -7.0698 H         1 <0>         0.0648
     46 H20         3.1103    5.6030   -4.7327 H         1 <0>         0.0604
     47 H21         4.3431    6.4735   -5.6765 H         1 <0>         0.0560
     48 H22         3.0241    5.6176   -6.5105 H         1 <0>         0.0583
     49 H23         6.0862    3.3932   -4.5178 H         1 <0>         0.0539
     50 H24         6.1341    5.1726   -4.5110 H         1 <0>         0.0560
     51 H25         4.8873    4.3123   -3.5764 H         1 <0>         0.0604
     52 H26         1.9974    3.2559   -8.9737 H         1 <0>         0.0576
     53 H27         3.2199    2.8146  -10.1899 H         1 <0>         0.0553
     54 H28         2.4466    1.5492   -9.2056 H         1 <0>         0.0576
     55 H29         4.6749    0.7317   -8.4806 H         1 <0>         0.0544
     56 H30         5.4662    1.9906   -9.4591 H         1 <0>         0.0552
     57 H31         5.8378    1.8470   -7.7243 H         1 <0>         0.0569
@<TRIPOS>BOND
     1    1    2 1
     2    1   27 1
     3    1   28 1
     4    1   29 1
     5    2    3 2
     6    2    7 1
     7    3    4 1
     8    3   30 1
     9    4    5 2
    10    4    6 1
    11    7    8 2
    12    7   31 1
    13    8    9 1
    14    8   32 1
    15    9   11 1
    16    9   10 1
    17    9   33 1
    18   10   11 1
    19   10   34 1
    20   10   35 1
    21   11   12 1
    22   11   13 1
    23   12   36 1
    24   12   37 1
    25   12   38 1
    26   13   18 ar
    27   13   14 ar
    28   14   15 ar
    29   14   39 1
    30   15   16 ar
    31   15   40 1
    32   16   22 1
    33   16   17 ar
    34   17   18 ar
    35   17   19 1
    36   18   41 1
    37   19   20 1
    38   19   25 1
    39   19   26 1
    40   20   21 1
    41   20   42 1
    42   20   43 1
    43   21   22 1
    44   21   44 1
    45   21   45 1
    46   22   23 1
    47   22   24 1
    48   23   46 1
    49   23   47 1
    50   23   48 1
    51   24   49 1
    52   24   50 1
    53   24   51 1
    54   25   52 1
    55   25   53 1
    56   25   54 1
    57   26   55 1
    58   26   56 1
    59   26   57 1
@<TRIPOS>MOLECULE
CHEMBL69091__3
   57    59     0     0     0
SMALL
USER_CHARGES

@<TRIPOS>ATOM
      1 C1         -0.7778    1.3562    0.0881 C.3       1 <0>        -0.0915
      2 C2         -0.2263   -0.0448    0.0255 C.2       1 <0>        -0.0936
      3 C3          0.1247   -0.6865    1.1664 C.2       1 <0>        -0.1814
      4 C4          0.1271    0.0097    2.3968 C.2       1 <0>         0.4996
      5 O1         -0.0733    1.2182    2.4172 O.co2     1 <0>        -0.6859
      6 O2          0.3295   -0.5956    3.4427 O.co2     1 <0>        -0.7057
      7 C5         -0.0700   -0.7119   -1.2660 C.2       1 <0>        -0.0925
      8 C6         -0.4159   -0.0797   -2.3901 C.2       1 <0>        -0.1470
      9 C7         -0.2548   -0.7673   -3.7214 C.3       1 <0>        -0.1023
     10 C8         -0.8519   -0.0775   -4.9496 C.3       1 <0>        -0.1572
     11 C9          0.6648   -0.1071   -4.7507 C.3       1 <0>        -0.0838
     12 C10         1.3504    1.2005   -4.3496 C.3       1 <0>        -0.1119
     13 C11         1.4668   -1.0129   -5.6493 C.ar      1 <0>        -0.0374
     14 C12         1.3526   -2.3857   -5.5309 C.ar      1 <0>        -0.1212
     15 C13         2.0923   -3.2080   -6.3550 C.ar      1 <0>        -0.1149
     16 C14         2.9505   -2.6685   -7.3047 C.ar      1 <0>        -0.0700
     17 C15         3.0603   -1.3016   -7.4261 C.ar      1 <0>        -0.0602
     18 C16         2.3130   -0.4751   -6.5966 C.ar      1 <0>        -0.1123
     19 C17         3.9580   -0.6477   -8.4436 C.3       1 <0>        -0.0224
     20 C18         4.9962   -1.6410   -8.9615 C.3       1 <0>        -0.1117
     21 C19         4.2677   -2.9139   -9.4080 C.3       1 <0>        -0.1108
     22 C20         3.7338   -3.6244   -8.1659 C.3       1 <0>        -0.0223
     23 C21         4.9084   -4.1829   -7.3601 C.3       1 <0>        -0.1396
     24 C22         2.8244   -4.7773   -8.5958 C.3       1 <0>        -0.1416
     25 C23         4.6744    0.5390   -7.7958 C.3       1 <0>        -0.1428
     26 C24         3.1113   -0.1462   -9.6152 C.3       1 <0>        -0.1386
     27 H1          0.0455    2.0689    0.1371 H         1 <0>         0.0619
     28 H2         -1.3751    1.5517   -0.8024 H         1 <0>         0.0297
     29 H3         -1.4027    1.4614    0.9750 H         1 <0>         0.0880
     30 H4          0.4026   -1.7296    1.1356 H         1 <0>         0.0956
     31 H5          0.3252   -1.7160   -1.3109 H         1 <0>         0.1062
     32 H6         -0.8111    0.9244   -2.3452 H         1 <0>         0.1175
     33 H7         -0.2794   -1.8566   -3.6939 H         1 <0>         0.1075
     34 H8         -1.2697   -0.7130   -5.7304 H         1 <0>         0.0933
     35 H9         -1.3613    0.8737   -4.7947 H         1 <0>         0.0987
     36 H10         1.9753    1.0291   -3.4731 H         1 <0>         0.0646
     37 H11         1.9699    1.5537   -5.1740 H         1 <0>         0.0577
     38 H12         0.5945    1.9503   -4.1159 H         1 <0>         0.0612
     39 H13         0.6869   -2.8126   -4.7954 H         1 <0>         0.1217
     40 H14         2.0037   -4.2803   -6.2608 H         1 <0>         0.1198
     41 H15         2.3990    0.5973   -6.6909 H         1 <0>         0.1231
     42 H16         5.5292   -1.2071   -9.8076 H         1 <0>         0.0657
     43 H17         5.7022   -1.8818   -8.1667 H         1 <0>         0.0688
     44 H18         3.4388   -2.6511  -10.0653 H         1 <0>         0.0679
     45 H19         4.9617   -3.5683   -9.9354 H         1 <0>         0.0653
     46 H20         4.5303   -4.7075   -6.4827 H         1 <0>         0.0561
     47 H21         5.4778   -4.8753   -7.9801 H         1 <0>         0.0565
     48 H22         5.5539   -3.3636   -7.0434 H         1 <0>         0.0582
     49 H23         1.9807   -4.3829   -9.1621 H         1 <0>         0.0555
     50 H24         3.3879   -5.4714   -9.2193 H         1 <0>         0.0564
     51 H25         2.4568   -5.2990   -7.7121 H         1 <0>         0.0587
     52 H26         5.2713    0.1876   -6.9542 H         1 <0>         0.0571
     53 H27         5.3252    1.0150   -8.5293 H         1 <0>         0.0569
     54 H28         3.9369    1.2597   -7.4424 H         1 <0>         0.0590
     55 H29         2.3818    0.5780   -9.2525 H         1 <0>         0.0561
     56 H30         3.7576    0.3278  -10.3539 H         1 <0>         0.0568
     57 H31         2.5912   -0.9873  -10.0737 H         1 <0>         0.0572
@<TRIPOS>BOND
     1    1    2 1
     2    1   27 1
     3    1   28 1
     4    1   29 1
     5    2    3 2
     6    2    7 1
     7    3    4 1
     8    3   30 1
     9    4    5 2
    10    4    6 1
    11    7    8 2
    12    7   31 1
    13    8    9 1
    14    8   32 1
    15    9   11 1
    16    9   10 1
    17    9   33 1
    18   10   11 1
    19   10   34 1
    20   10   35 1
    21   11   12 1
    22   11   13 1
    23   12   36 1
    24   12   37 1
    25   12   38 1
    26   13   18 ar
    27   13   14 ar
    28   14   15 ar
    29   14   39 1
    30   15   16 ar
    31   15   40 1
    32   16   22 1
    33   16   17 ar
    34   17   18 ar
    35   17   19 1
    36   18   41 1
    37   19   20 1
    38   19   25 1
    39   19   26 1
    40   20   21 1
    41   20   42 1
    42   20   43 1
    43   21   22 1
    44   21   44 1
    45   21   45 1
    46   22   23 1
    47   22   24 1
    48   23   46 1
    49   23   47 1
    50   23   48 1
    51   24   49 1
    52   24   50 1
    53   24   51 1
    54   25   52 1
    55   25   53 1
    56   25   54 1
    57   26   55 1
    58   26   56 1
    59   26   57 1
@<TRIPOS>MOLECULE
CHEMBL247220
   57    59     0     0     0
SMALL
USER_CHARGES

@<TRIPOS>ATOM
      1 C1         -0.0487    1.5020    0.0032 C.3       1 <0>        -0.1169
      2 C2         -0.0203   -0.0047   -0.0032 C.ar      1 <0>        -0.0709
      3 C3         -0.0090   -0.6898   -1.2018 C.ar      1 <0>        -0.0837
      4 C4          0.0215   -2.0717   -1.2132 C.ar      1 <0>        -0.0983
      5 C5          0.0491   -2.7794   -0.0182 C.ar      1 <0>         0.1491
      6 C6          0.0291   -2.0987    1.1902 C.ar      1 <0>        -0.1247
      7 C7          0.0006   -0.7066    1.2008 C.ar      1 <0>        -0.0053
      8 C8         -0.0127    0.0273    2.4898 C.ar      1 <0>        -0.0529
      9 C9          1.0861   -0.0380    3.3434 C.ar      1 <0>        -0.0704
     10 C10         1.0691    0.6469    4.5414 C.ar      1 <0>        -0.0729
     11 C11        -0.0364    1.3987    4.8987 C.ar      1 <0>        -0.0742
     12 C12        -1.1319    1.4700    4.0596 C.ar      1 <0>        -0.1843
     13 C13        -1.1258    0.7922    2.8508 C.ar      1 <0>         0.0996
     14 O1         -2.1997    0.8663    2.0223 O.3       1 <0>        -0.3019
     15 C14        -3.3006    1.6668    2.4572 C.3       1 <0>         0.6005
     16 F1         -2.8743    2.9868    2.6390 F         1 <0>        -0.1656
     17 F2         -4.3125    1.6323    1.4917 F         1 <0>        -0.1345
     18 F3         -3.7930    1.1650    3.6668 F         1 <0>        -0.1662
     19 C15         2.2586    0.5755    5.4640 C.3       1 <0>        -0.0600
     20 C16         3.2350    1.7037    5.1256 C.3       1 <0>        -0.1758
     21 C17         4.4245    1.6322    6.0482 C.2       1 <0>         0.4894
     22 O2          4.4855    0.7598    6.8977 O.co2     1 <0>        -0.6980
     23 O3          5.3257    2.4468    5.9451 O.co2     1 <0>        -0.7044
     24 N1          0.1177   -4.1757   -0.0288 N.am      1 <0>        -0.5476
     25 C18         0.4278   -4.8398   -1.1553 C.2       1 <0>         0.5255
     26 O4          0.3783   -6.0516   -1.1707 O.2       1 <0>        -0.5119
     27 C19         0.8354   -4.0948   -2.3988 C.3       1 <0>        -0.1264
     28 C20         0.0144   -2.8114   -2.5268 C.3       1 <0>        -0.0198
     29 C21        -1.4258   -3.1633   -2.9052 C.3       1 <0>        -0.1410
     30 C22         0.6234   -1.9239   -3.6142 C.3       1 <0>        -0.1414
     31 C23        -0.1509   -4.9233    1.2021 C.3       1 <0>         0.0589
     32 C24        -1.6589   -5.1337    1.3522 C.3       1 <0>         0.4360
     33 F4         -2.1408   -5.8544    0.2543 F         1 <0>        -0.1751
     34 F5         -1.9154   -5.8477    2.5277 F         1 <0>        -0.1775
     35 F6         -2.2993   -3.8913    1.4121 F         1 <0>        -0.1745
     36 H1          0.9718    1.8847   -0.0017 H         1 <0>         0.0744
     37 H2         -0.5750    1.8592   -0.8820 H         1 <0>         0.0664
     38 H3         -0.5637    1.8518    0.8979 H         1 <0>         0.0697
     39 H4         -0.0245   -0.1442   -2.1337 H         1 <0>         0.1359
     40 H5          0.0397   -2.6471    2.1206 H         1 <0>         0.1298
     41 H6          1.9504   -0.6243    3.0682 H         1 <0>         0.1379
     42 H7         -0.0431    1.9319    5.8379 H         1 <0>         0.1347
     43 H8         -1.9920    2.0580    4.3440 H         1 <0>         0.1326
     44 H9          1.9246    0.6814    6.4962 H         1 <0>         0.0748
     45 H10         2.7571   -0.3859    5.3403 H         1 <0>         0.0741
     46 H11         3.5690    1.5977    4.0934 H         1 <0>         0.0579
     47 H12         2.7365    2.6650    5.2493 H         1 <0>         0.0580
     48 H13         1.8942   -3.8431   -2.3396 H         1 <0>         0.1083
     49 H14         0.6620   -4.7245   -3.2716 H         1 <0>         0.1117
     50 H15        -2.0104   -2.2482   -2.9999 H         1 <0>         0.0657
     51 H16        -1.4315   -3.6981   -3.8550 H         1 <0>         0.0649
     52 H17        -1.8612   -3.7941   -2.1303 H         1 <0>         0.0532
     53 H18         1.6489   -1.6712   -3.3448 H         1 <0>         0.0643
     54 H19         0.6184   -2.4582   -4.5643 H         1 <0>         0.0639
     55 H20         0.0366   -1.0101   -3.7082 H         1 <0>         0.0671
     56 H21         0.3481   -5.8913    1.1554 H         1 <0>         0.1393
     57 H22         0.2246   -4.3618    2.0575 H         1 <0>         0.1324
@<TRIPOS>BOND
     1    1    2 1
     2    1   36 1
     3    1   37 1
     4    1   38 1
     5    2    7 ar
     6    2    3 ar
     7    3    4 ar
     8    3   39 1
     9    4   28 1
    10    4    5 ar
    11    5    6 ar
    12    5   24 1
    13    6    7 ar
    14    6   40 1
    15    7    8 1
    16    8   13 ar
    17    8    9 ar
    18    9   10 ar
    19    9   41 1
    20   10   11 ar
    21   10   19 1
    22   11   12 ar
    23   11   42 1
    24   12   13 ar
    25   12   43 1
    26   13   14 1
    27   14   15 1
    28   15   16 1
    29   15   17 1
    30   15   18 1
    31   19   20 1
    32   19   44 1
    33   19   45 1
    34   20   21 1
    35   20   46 1
    36   20   47 1
    37   21   22 2
    38   21   23 1
    39   24   25 am
    40   24   31 1
    41   25   26 2
    42   25   27 1
    43   27   28 1
    44   27   48 1
    45   27   49 1
    46   28   29 1
    47   28   30 1
    48   29   50 1
    49   29   51 1
    50   29   52 1
    51   30   53 1
    52   30   54 1
    53   30   55 1
    54   31   32 1
    55   31   56 1
    56   31   57 1
    57   32   33 1
    58   32   34 1
    59   32   35 1
@<TRIPOS>MOLECULE
CHEMBL101712
   48    50     0     0     0
SMALL
USER_CHARGES

@<TRIPOS>ATOM
      1 C1         -0.0289    1.2617   -0.2117 C.3       1 <0>        -0.1407
      2 C2         -0.0053   -0.2603   -0.0575 C.3       1 <0>        -0.0240
      3 C3         -1.4392   -0.7844   -0.0151 C.3       1 <0>        -0.1124
      4 C4         -2.0807   -0.3310    1.3017 C.3       1 <0>        -0.1117
      5 C5         -1.4263   -1.1017    2.4463 C.3       1 <0>        -0.0232
      6 C6          0.0750   -1.0033    2.3615 C.ar      1 <0>        -0.0477
      7 C7          0.7284   -0.6200    1.2084 C.ar      1 <0>        -0.0482
      8 C8          2.1120   -0.5543    1.1891 C.ar      1 <0>        -0.0798
      9 C9          2.8505   -0.8698    2.3294 C.ar      1 <0>        -0.1095
     10 C10         2.1822   -1.2538    3.4959 C.ar      1 <0>        -0.0654
     11 C11         0.8060   -1.3170    3.5016 C.ar      1 <0>        -0.0895
     12 Br1         3.1610   -1.6840    5.0556 Br        1 <0>        -0.0336
     13 C12         4.3249   -0.7985    2.3050 C.2       1 <0>         0.4473
     14 O1          4.8818    0.2809    2.3458 O.2       1 <0>        -0.4439
     15 C13         5.1248   -2.0415    2.2309 C.ar      1 <0>        -0.1770
     16 C14         6.5164   -1.9830    2.3298 C.ar      1 <0>        -0.0729
     17 C15         7.2613   -3.1402    2.2608 C.ar      1 <0>        -0.1011
     18 C16         6.6242   -4.3718    2.0925 C.ar      1 <0>        -0.0935
     19 C17         5.2321   -4.4301    1.9942 C.ar      1 <0>        -0.0992
     20 C18         4.4873   -3.2731    2.0680 C.ar      1 <0>        -0.0791
     21 C19         7.4230   -5.6129    2.0181 C.2       1 <0>         0.5166
     22 O2          8.6415   -5.5618    2.1038 O.co2     1 <0>        -0.6807
     23 O3          6.8652   -6.6909    1.8708 O.co2     1 <0>        -0.6812
     24 C20        -1.8408   -2.5723    2.3662 C.3       1 <0>        -0.1418
     25 C21        -1.8955   -0.5182    3.7805 C.3       1 <0>        -0.1443
     26 C22         0.7212   -0.8773   -1.2543 C.3       1 <0>        -0.1463
     27 H1          0.9930    1.6376   -0.2623 H         1 <0>         0.0579
     28 H2         -0.5590    1.5260   -1.1267 H         1 <0>         0.0609
     29 H3         -0.5374    1.7058    0.6440 H         1 <0>         0.0591
     30 H4         -2.0027   -0.3806   -0.8562 H         1 <0>         0.0699
     31 H5         -1.4337   -1.8732   -0.0650 H         1 <0>         0.0719
     32 H6         -1.9196    0.7382    1.4396 H         1 <0>         0.0701
     33 H7         -3.1499   -0.5420    1.2810 H         1 <0>         0.0697
     34 H8          2.6223   -0.2571    0.2849 H         1 <0>         0.1351
     35 H9          0.2890   -1.6138    4.4022 H         1 <0>         0.1375
     36 H10         7.0089   -1.0307    2.4599 H         1 <0>         0.1257
     37 H11         8.3377   -3.0948    2.3366 H         1 <0>         0.1337
     38 H12         4.7393   -5.3822    1.8637 H         1 <0>         0.1324
     39 H13         3.4107   -3.3185    1.9957 H         1 <0>         0.1173
     40 H14        -1.5171   -2.9896    1.4127 H         1 <0>         0.0611
     41 H15        -1.3756   -3.1259    3.1818 H         1 <0>         0.0586
     42 H16        -2.9251   -2.6491    2.4470 H         1 <0>         0.0605
     43 H17        -2.9795   -0.6054    3.8541 H         1 <0>         0.0608
     44 H18        -1.4305   -1.0658    4.6002 H         1 <0>         0.0602
     45 H19        -1.6109    0.5324    3.8378 H         1 <0>         0.0577
     46 H20         1.7424   -0.4983   -1.2942 H         1 <0>         0.0605
     47 H21         0.7402   -1.9620   -1.1481 H         1 <0>         0.0607
     48 H22         0.1987   -0.6113   -2.1731 H         1 <0>         0.0613
@<TRIPOS>BOND
     1    1    2 1
     2    1   27 1
     3    1   28 1
     4    1   29 1
     5    2    7 1
     6    2    3 1
     7    2   26 1
     8    3    4 1
     9    3   30 1
    10    3   31 1
    11    4    5 1
    12    4   32 1
    13    4   33 1
    14    5    6 1
    15    5   24 1
    16    5   25 1
    17    6   11 ar
    18    6    7 ar
    19    7    8 ar
    20    8    9 ar
    21    8   34 1
    22    9   10 ar
    23    9   13 1
    24   10   11 ar
    25   10   12 1
    26   11   35 1
    27   13   14 2
    28   13   15 1
    29   15   20 ar
    30   15   16 ar
    31   16   17 ar
    32   16   36 1
    33   17   18 ar
    34   17   37 1
    35   18   19 ar
    36   18   21 1
    37   19   20 ar
    38   19   38 1
    39   20   39 1
    40   21   22 2
    41   21   23 1
    42   24   40 1
    43   24   41 1
    44   24   42 1
    45   25   43 1
    46   25   44 1
    47   25   45 1
    48   26   46 1
    49   26   47 1
    50   26   48 1
@<TRIPOS>MOLECULE
CHEMBL438857
   76    81     0     0     0
SMALL
USER_CHARGES

@<TRIPOS>ATOM
      1 C1         -0.4405    0.6058    0.0763 C.3       1 <0>        -0.1399
      2 C2         -0.1714   -0.8965    0.1841 C.3       1 <0>        -0.0201
      3 C3         -1.5013   -1.6402    0.2869 C.3       1 <0>        -0.1115
      4 C4         -2.1340   -1.3129    1.6446 C.3       1 <0>        -0.1113
      5 C5         -1.3055   -1.9848    2.7373 C.3       1 <0>        -0.0235
      6 C6          0.1555   -1.6549    2.5755 C.ar      1 <0>        -0.0276
      7 C7          0.6796   -1.1630    1.3989 C.ar      1 <0>        -0.0790
      8 C8          2.0392   -0.9030    1.3005 C.ar      1 <0>        -0.0561
      9 C9          2.8819   -1.1127    2.3892 C.ar      1 <0>        -0.1340
     10 C10         2.3371   -1.5800    3.5918 C.ar      1 <0>         0.2011
     11 C11         0.9865   -1.8602    3.6715 C.ar      1 <0>        -0.1428
     12 N1          3.1556   -1.7208    4.7168 N.pl3     1 <0>        -0.6176
     13 C12         3.8288   -0.5884    5.2061 C.ar      1 <0>         0.1362
     14 C13         3.5783   -0.1566    6.4976 C.ar      1 <0>        -0.1030
     15 C14         4.1930    0.9836    6.9841 C.ar      1 <0>        -0.1319
     16 C15         5.0619    1.7051    6.1746 C.ar      1 <0>        -0.0858
     17 C16         5.3338    1.2727    4.8860 C.ar      1 <0>        -0.0743
     18 C17         4.7357    0.1060    4.3958 C.ar      1 <0>         0.1260
     19 N2          5.0856   -0.3451    3.1650 N.2       1 <0>        -0.5090
     20 C18         4.3272   -0.8643    2.2675 C.2       1 <0>         0.3270
     21 C19         4.9673   -1.2491    0.9915 C.ar      1 <0>        -0.0944
     22 C20         6.1525   -0.6278    0.5893 C.ar      1 <0>        -0.0804
     23 C21         6.7489   -0.9860   -0.5982 C.ar      1 <0>        -0.0975
     24 C22         6.1686   -1.9718   -1.4023 C.ar      1 <0>        -0.1059
     25 C23         4.9826   -2.5933   -0.9994 C.ar      1 <0>        -0.0944
     26 C24         4.3898   -2.2381    0.1909 C.ar      1 <0>        -0.1010
     27 C25         6.8072   -2.3558   -2.6754 C.2       1 <0>         0.5168
     28 O1          7.8444   -1.8118   -3.0278 O.co2     1 <0>        -0.6836
     29 O2          6.2995   -3.2181   -3.3786 O.co2     1 <0>        -0.6844
     30 S1          5.8201    3.1727    6.7876 S.3       1 <0>        -0.0974
     31 C26         5.1751    3.3276    8.4760 C.3       1 <0>        -0.0711
     32 C27         5.7526    4.5599    9.1233 C.ar      1 <0>        -0.0703
     33 C28         6.9403    4.4790    9.8261 C.ar      1 <0>        -0.0869
     34 C29         7.4705    5.6089   10.4200 C.ar      1 <0>        -0.1096
     35 C30         6.8123    6.8209   10.3110 C.ar      1 <0>        -0.0290
     36 C31         5.6237    6.9012    9.6075 C.ar      1 <0>        -0.1097
     37 C32         5.0974    5.7718    9.0093 C.ar      1 <0>        -0.0872
     38 Cl1         7.4772    8.2403   11.0571 Cl        1 <0>        -0.0687
     39 C33         3.3079   -3.0221    5.3722 C.3       1 <0>         0.1118
     40 C34        -1.7843   -1.4955    4.1056 C.3       1 <0>        -0.1408
     41 C35        -1.4926   -3.5009    2.6513 C.3       1 <0>        -0.1394
     42 C36         0.5735   -1.3667   -1.0668 C.3       1 <0>        -0.1474
     43 H1          0.5058    1.1387   -0.0166 H         1 <0>         0.0570
     44 H2         -1.0560    0.8026   -0.8015 H         1 <0>         0.0592
     45 H3         -0.9630    0.9464    0.9702 H         1 <0>         0.0560
     46 H4         -2.1654   -1.3177   -0.5150 H         1 <0>         0.0684
     47 H5         -1.3284   -2.7138    0.2117 H         1 <0>         0.0704
     48 H6         -2.1370   -0.2337    1.7975 H         1 <0>         0.0692
     49 H7         -3.1559   -1.6910    1.6740 H         1 <0>         0.0670
     50 H8          2.4475   -0.5343    0.3711 H         1 <0>         0.1365
     51 H9          0.5725   -2.2417    4.5932 H         1 <0>         0.1262
     52 H10         2.8998   -0.7121    7.1280 H         1 <0>         0.1262
     53 H11         3.9970    1.3132    7.9938 H         1 <0>         0.1240
     54 H12         6.0077    1.8374    4.2589 H         1 <0>         0.1357
     55 H13         6.6004    0.1338    1.2103 H         1 <0>         0.1246
     56 H14         7.6648   -0.5054   -0.9090 H         1 <0>         0.1305
     57 H15         4.5338   -3.3545   -1.6203 H         1 <0>         0.1302
     58 H16         3.4760   -2.7209    0.5041 H         1 <0>         0.1181
     59 H17         4.0887    3.4093    8.4438 H         1 <0>         0.0991
     60 H18         5.4563    2.4476    9.0545 H         1 <0>         0.0994
     61 H19         7.4539    3.5328    9.9114 H         1 <0>         0.1363
     62 H20         8.3982    5.5455   10.9693 H         1 <0>         0.1367
     63 H21         5.1092    7.8470    9.5223 H         1 <0>         0.1365
     64 H22         4.1720    5.8353    8.4560 H         1 <0>         0.1359
     65 H23         4.1457   -3.5578    4.9260 H         1 <0>         0.0453
     66 H24         3.4965   -2.8736    6.4355 H         1 <0>         0.0640
     67 H25         2.3948   -3.6031    5.2429 H         1 <0>         0.0656
     68 H26        -2.8360   -1.7510    4.2352 H         1 <0>         0.0581
     69 H27        -1.1952   -1.9729    4.8886 H         1 <0>         0.0571
     70 H28        -1.6628   -0.4141    4.1677 H         1 <0>         0.0561
     71 H29        -1.1625   -3.8528    1.6739 H         1 <0>         0.0616
     72 H30        -0.9026   -3.9844    3.4299 H         1 <0>         0.0549
     73 H31        -2.5458   -3.7454    2.7889 H         1 <0>         0.0585
     74 H32         1.5193   -0.8312   -1.1493 H         1 <0>         0.0635
     75 H33         0.7670   -2.4369   -0.9937 H         1 <0>         0.0601
     76 H34        -0.0352   -1.1670   -1.9487 H         1 <0>         0.0597
@<TRIPOS>BOND
     1    1    2 1
     2    1   43 1
     3    1   44 1
     4    1   45 1
     5    2    7 1
     6    2    3 1
     7    2   42 1
     8    3    4 1
     9    3   46 1
    10    3   47 1
    11    4    5 1
    12    4   48 1
    13    4   49 1
    14    5    6 1
    15    5   40 1
    16    5   41 1
    17    6   11 ar
    18    6    7 ar
    19    7    8 ar
    20    8    9 ar
    21    8   50 1
    22    9   20 1
    23    9   10 ar
    24   10   11 ar
    25   10   12 1
    26   11   51 1
    27   12   13 1
    28   12   39 1
    29   13   18 ar
    30   13   14 ar
    31   14   15 ar
    32   14   52 1
    33   15   16 ar
    34   15   53 1
    35   16   17 ar
    36   16   30 1
    37   17   18 ar
    38   17   54 1
    39   18   19 1
    40   19   20 2
    41   20   21 1
    42   21   26 ar
    43   21   22 ar
    44   22   23 ar
    45   22   55 1
    46   23   24 ar
    47   23   56 1
    48   24   25 ar
    49   24   27 1
    50   25   26 ar
    51   25   57 1
    52   26   58 1
    53   27   28 2
    54   27   29 1
    55   30   31 1
    56   31   32 1
    57   31   59 1
    58   31   60 1
    59   32   37 ar
    60   32   33 ar
    61   33   34 ar
    62   33   61 1
    63   34   35 ar
    64   34   62 1
    65   35   36 ar
    66   35   38 1
    67   36   37 ar
    68   36   63 1
    69   37   64 1
    70   39   65 1
    71   39   66 1
    72   39   67 1
    73   40   68 1
    74   40   69 1
    75   40   70 1
    76   41   71 1
    77   41   72 1
    78   41   73 1
    79   42   74 1
    80   42   75 1
    81   42   76 1
@<TRIPOS>MOLECULE
CHEMBL166201
   59    61     0     0     0
SMALL
USER_CHARGES

@<TRIPOS>ATOM
      1 C1          0.3961    1.9008    3.8757 C.3       1 <0>        -0.1504
      2 C2          0.1853    0.3951    4.0476 C.3       1 <0>         0.0679
      3 O1          0.9048   -0.3056    3.0311 O.3       1 <0>        -0.2259
      4 N1          0.7755   -1.7140    3.1009 N.2       1 <0>        -0.3398
      5 C3          1.3834   -2.4674    2.2303 C.2       1 <0>         0.2334
      6 C4          2.1035   -1.8510    1.0920 C.ar      1 <0>        -0.1114
      7 C5          1.6323   -0.6636    0.5294 C.ar      1 <0>        -0.0908
      8 C6          2.3006   -0.0898   -0.5285 C.ar      1 <0>        -0.0935
      9 C7          3.4521   -0.6966   -1.0390 C.ar      1 <0>        -0.1106
     10 C8          3.9234   -1.8857   -0.4743 C.ar      1 <0>        -0.0937
     11 C9          3.2560   -2.4549    0.5866 C.ar      1 <0>        -0.1005
     12 C10         4.1688   -0.0831   -2.1727 C.2       1 <0>         0.5173
     13 O2          3.7560    0.9568   -2.6666 O.co2     1 <0>        -0.6849
     14 O3          5.1761   -0.6143   -2.6190 O.co2     1 <0>        -0.6851
     15 C11         1.3548   -3.9414    2.3781 C.ar      1 <0>        -0.0374
     16 C12         1.9781   -4.5496    3.4638 C.ar      1 <0>        -0.0809
     17 C13         1.9520   -5.9283    3.6071 C.ar      1 <0>        -0.0712
     18 C14         1.3016   -6.7026    2.6702 C.ar      1 <0>        -0.0485
     19 C15         0.6811   -6.0985    1.5827 C.ar      1 <0>        -0.1207
     20 C16         0.6983   -4.7297    1.4336 C.ar      1 <0>        -0.0489
     21 C17         0.0158   -4.0875    0.2534 C.3       1 <0>        -0.1180
     22 C18         1.2220   -8.2036    2.7749 C.3       1 <0>        -0.0234
     23 C19         2.2817   -8.7321    3.7393 C.3       1 <0>        -0.1118
     24 C20         2.1748   -7.9485    5.0527 C.3       1 <0>        -0.1104
     25 C21         2.6537   -6.5202    4.8017 C.3       1 <0>        -0.0207
     26 C22         4.1622   -6.5315    4.5463 C.3       1 <0>        -0.1410
     27 C23         2.3582   -5.6648    6.0353 C.3       1 <0>        -0.1429
     28 C24        -0.1654   -8.6009    3.2830 C.3       1 <0>        -0.1387
     29 C25         1.4469   -8.8183    1.3921 C.3       1 <0>        -0.1430
     30 H1          0.0328    2.2089    2.8954 H         1 <0>         0.0649
     31 H2         -0.1527    2.4353    4.6511 H         1 <0>         0.0739
     32 H3          1.4583    2.1307    3.9583 H         1 <0>         0.0644
     33 H4          0.5486    0.0870    5.0280 H         1 <0>         0.0512
     34 H5         -0.8769    0.1652    3.9650 H         1 <0>         0.0515
     35 H6          0.7428   -0.1951    0.9239 H         1 <0>         0.1215
     36 H7          1.9354    0.8285   -0.9641 H         1 <0>         0.1285
     37 H8          4.8125   -2.3555   -0.8681 H         1 <0>         0.1288
     38 H9          3.6221   -3.3712    1.0256 H         1 <0>         0.1156
     39 H10         2.4857   -3.9434    4.1995 H         1 <0>         0.1241
     40 H11         0.1771   -6.7094    0.8484 H         1 <0>         0.1260
     41 H12         0.7443   -3.9173   -0.5393 H         1 <0>         0.0801
     42 H13        -0.7725   -4.7453   -0.1127 H         1 <0>         0.0658
     43 H14        -0.4182   -3.1353    0.5585 H         1 <0>         0.0654
     44 H15         2.1097   -9.7916    3.9289 H         1 <0>         0.0661
     45 H16         3.2729   -8.5921    3.3080 H         1 <0>         0.0702
     46 H17         1.1378   -7.9342    5.3884 H         1 <0>         0.0683
     47 H18         2.8006   -8.4174    5.8120 H         1 <0>         0.0662
     48 H19         4.5113   -5.5114    4.3860 H         1 <0>         0.0574
     49 H20         4.6735   -6.9592    5.4087 H         1 <0>         0.0572
     50 H21         4.3765   -7.1320    3.6622 H         1 <0>         0.0595
     51 H22         1.2834   -5.6458    6.2154 H         1 <0>         0.0564
     52 H23         2.8644   -6.0900    6.9020 H         1 <0>         0.0571
     53 H24         2.7164   -4.6491    5.8675 H         1 <0>         0.0590
     54 H25        -0.9236   -8.2426    2.5868 H         1 <0>         0.0563
     55 H26        -0.2269   -9.6865    3.3602 H         1 <0>         0.0572
     56 H27        -0.3340   -8.1568    4.2640 H         1 <0>         0.0580
     57 H28         2.4306   -8.5296    1.0217 H         1 <0>         0.0585
     58 H29         1.3901   -9.9045    1.4637 H         1 <0>         0.0570
     59 H30         0.6804   -8.4589    0.7056 H         1 <0>         0.0595
@<TRIPOS>BOND
     1    1    2 1
     2    1   30 1
     3    1   31 1
     4    1   32 1
     5    2    3 1
     6    2   33 1
     7    2   34 1
     8    3    4 1
     9    4    5 2
    10    5    6 1
    11    5   15 1
    12    6   11 ar
    13    6    7 ar
    14    7    8 ar
    15    7   35 1
    16    8    9 ar
    17    8   36 1
    18    9   10 ar
    19    9   12 1
    20   10   11 ar
    21   10   37 1
    22   11   38 1
    23   12   13 2
    24   12   14 1
    25   15   20 ar
    26   15   16 ar
    27   16   17 ar
    28   16   39 1
    29   17   25 1
    30   17   18 ar
    31   18   19 ar
    32   18   22 1
    33   19   20 ar
    34   19   40 1
    35   20   21 1
    36   21   41 1
    37   21   42 1
    38   21   43 1
    39   22   23 1
    40   22   28 1
    41   22   29 1
    42   23   24 1
    43   23   44 1
    44   23   45 1
    45   24   25 1
    46   24   46 1
    47   24   47 1
    48   25   26 1
    49   25   27 1
    50   26   48 1
    51   26   49 1
    52   26   50 1
    53   27   51 1
    54   27   52 1
    55   27   53 1
    56   28   54 1
    57   28   55 1
    58   28   56 1
    59   29   57 1
    60   29   58 1
    61   29   59 1
@<TRIPOS>MOLECULE
CHEMBL314745
   56    58     0     0     0
SMALL
USER_CHARGES

@<TRIPOS>ATOM
      1 C1         -0.1733    0.2066   -1.6913 C.3       1 <0>        -0.1435
      2 C2         -0.2231   -1.2935   -1.3946 C.3       1 <0>        -0.0538
      3 C3          0.6334   -1.5987   -0.1641 C.3       1 <0>        -0.1471
      4 C4         -1.6481   -1.7061   -1.1297 C.ar      1 <0>        -0.0785
      5 C5         -2.3487   -1.1305   -0.0885 C.ar      1 <0>        -0.0901
      6 C6         -3.6661   -1.5114    0.1571 C.ar      1 <0>        -0.0512
      7 C7         -4.2713   -2.4767   -0.6549 C.ar      1 <0>         0.1101
      8 C8         -3.5568   -3.0455   -1.6954 C.ar      1 <0>        -0.0870
      9 C9         -2.2513   -2.6561   -1.9341 C.ar      1 <0>        -0.0975
     10 C10        -4.2043   -4.0857   -2.5729 C.3       1 <0>        -0.0574
     11 C11        -4.2182   -3.5938   -4.0216 C.3       1 <0>        -0.1413
     12 C12        -3.4121   -5.3916   -2.4852 C.3       1 <0>        -0.1437
     13 O1         -5.5558   -2.8549   -0.4227 O.3       1 <0>        -0.3218
     14 C13        -6.5802   -2.1193   -1.0946 C.3       1 <0>         0.0384
     15 C14        -4.4227   -0.8972    1.2736 C.2       1 <0>        -0.0444
     16 C15        -4.7270    0.4203    1.2555 C.2       1 <0>        -0.1604
     17 S1         -5.6187    0.6648    2.7789 S.3       1 <0>         0.0127
     18 C16        -5.5656   -0.9949    3.4056 C.ar      1 <0>        -0.1161
     19 C17        -4.8585   -1.7073    2.4116 C.ar      1 <0>        -0.0707
     20 C18        -4.6598   -3.0832    2.6365 C.ar      1 <0>        -0.0471
     21 C19        -5.1514   -3.6850    3.7882 C.ar      1 <0>        -0.0291
     22 C20        -5.8539   -2.9386    4.7487 C.ar      1 <0>        -0.0811
     23 C21        -6.0473   -1.6013    4.5505 C.ar      1 <0>        -0.0837
     24 C22        -4.9341   -5.1214    4.0041 C.2       1 <0>        -0.0864
     25 C23        -3.6789   -5.5979    4.1737 C.2       1 <0>        -0.1796
     26 C24        -3.4534   -6.9923    4.2270 C.2       1 <0>         0.5027
     27 O2         -4.3746   -7.7706    4.0104 O.co2     1 <0>        -0.6849
     28 O3         -2.3367   -7.4227    4.4898 O.co2     1 <0>        -0.7044
     29 C25        -6.1089   -6.0647    4.0368 C.3       1 <0>        -0.0858
     30 H1          0.8574    0.5051   -1.8829 H         1 <0>         0.0571
     31 H2         -0.7835    0.4241   -2.5680 H         1 <0>         0.0546
     32 H3         -0.5583    0.7594   -0.8344 H         1 <0>         0.0565
     33 H4          0.1619   -1.8463   -2.2515 H         1 <0>         0.0773
     34 H5          0.2484   -1.0459    0.6927 H         1 <0>         0.0572
     35 H6          0.5979   -2.6675    0.0472 H         1 <0>         0.0596
     36 H7          1.6641   -1.3003   -0.3558 H         1 <0>         0.0574
     37 H8         -1.8759   -0.3861    0.5350 H         1 <0>         0.1254
     38 H9         -1.6990   -3.0988   -2.7497 H         1 <0>         0.1248
     39 H10        -5.2271   -4.2580   -2.2378 H         1 <0>         0.0852
     40 H11        -3.1954   -3.4215   -4.3566 H         1 <0>         0.0558
     41 H12        -4.6866   -4.3462   -4.6562 H         1 <0>         0.0582
     42 H13        -4.7827   -2.6634   -4.0840 H         1 <0>         0.0509
     43 H14        -3.4021   -5.7420   -1.4531 H         1 <0>         0.0621
     44 H15        -3.8804   -6.1440   -3.1199 H         1 <0>         0.0581
     45 H16        -2.3892   -5.2193   -2.8203 H         1 <0>         0.0545
     46 H17        -6.4404   -2.2031   -2.1724 H         1 <0>         0.0435
     47 H18        -7.5555   -2.5228   -0.8223 H         1 <0>         0.0919
     48 H19        -6.5262   -1.0708   -0.8017 H         1 <0>         0.0431
     49 H20        -4.4862    1.1512    0.4977 H         1 <0>         0.1839
     50 H21        -4.1224   -3.6740    1.9094 H         1 <0>         0.1241
     51 H22        -6.2316   -3.4169    5.6403 H         1 <0>         0.1348
     52 H23        -6.5865   -1.0195    5.2834 H         1 <0>         0.1280
     53 H24        -2.8494   -4.9128    4.2684 H         1 <0>         0.0936
     54 H25        -6.2470   -6.5074    3.0504 H         1 <0>         0.0637
     55 H26        -5.9217   -6.8531    4.7659 H         1 <0>         0.0934
     56 H27        -7.0078   -5.5159    4.3178 H         1 <0>         0.0276
@<TRIPOS>BOND
     1    1    2 1
     2    1   30 1
     3    1   31 1
     4    1   32 1
     5    2    3 1
     6    2    4 1
     7    2   33 1
     8    3   34 1
     9    3   35 1
    10    3   36 1
    11    4    9 ar
    12    4    5 ar
    13    5    6 ar
    14    5   37 1
    15    6    7 ar
    16    6   15 1
    17    7    8 ar
    18    7   13 1
    19    8    9 ar
    20    8   10 1
    21    9   38 1
    22   10   11 1
    23   10   12 1
    24   10   39 1
    25   11   40 1
    26   11   41 1
    27   11   42 1
    28   12   43 1
    29   12   44 1
    30   12   45 1
    31   13   14 1
    32   14   46 1
    33   14   47 1
    34   14   48 1
    35   15   19 1
    36   15   16 2
    37   16   17 1
    38   16   49 1
    39   17   18 1
    40   18   23 ar
    41   18   19 ar
    42   19   20 ar
    43   20   21 ar
    44   20   50 1
    45   21   22 ar
    46   21   24 1
    47   22   23 ar
    48   22   51 1
    49   23   52 1
    50   24   25 2
    51   24   29 1
    52   25   26 1
    53   25   53 1
    54   26   27 2
    55   26   28 1
    56   29   54 1
    57   29   55 1
    58   29   56 1
@<TRIPOS>MOLECULE
CHEMBL106837
   53    55     0     0     0
SMALL
USER_CHARGES

@<TRIPOS>ATOM
      1 C1          0.4754    1.0313   -0.0219 C.3       1 <0>        -0.1244
      2 C2          0.3165   -0.4673   -0.0369 C.ar      1 <0>        -0.0640
      3 C3          0.2231   -1.1407   -1.2366 C.ar      1 <0>        -0.1061
      4 C4          0.0768   -2.5187   -1.2574 C.ar      1 <0>        -0.0806
      5 C5          0.0241   -3.2279   -0.0703 C.ar      1 <0>        -0.0886
      6 C6          0.1171   -2.5614    1.1372 C.ar      1 <0>        -0.0871
      7 C7          0.2694   -1.1771    1.1614 C.ar      1 <0>        -0.0412
      8 C8          0.3753   -0.4615    2.4561 C.2       1 <0>        -0.0322
      9 C9          1.5129   -0.5173    3.1611 C.2       1 <0>        -0.1738
     10 C10        -0.7770    0.3150    2.9697 C.ar      1 <0>        -0.0653
     11 C11        -1.9566   -0.3411    3.3263 C.ar      1 <0>        -0.1190
     12 C12        -3.0241    0.3762    3.8014 C.ar      1 <0>        -0.0853
     13 C13        -2.9307    1.7661    3.9291 C.ar      1 <0>        -0.1277
     14 C14        -1.7480    2.4220    3.5718 C.ar      1 <0>        -0.0862
     15 C15        -0.6803    1.7013    3.1020 C.ar      1 <0>        -0.1248
     16 C16        -4.0773    2.5386    4.4391 C.2       1 <0>         0.5178
     17 O1         -5.1114    1.9645    4.7510 O.co2     1 <0>        -0.6874
     18 O2         -3.9950    3.7539    4.5506 O.co2     1 <0>        -0.6875
     19 C17        -0.1380   -4.7043   -0.3635 C.3       1 <0>        -0.0179
     20 C18        -0.6164   -4.7750   -1.8291 C.3       1 <0>        -0.0743
     21 C19        -0.0460   -3.4718   -2.4275 C.3       1 <0>        -0.0191
     22 C20        -1.0053   -2.9046   -3.4757 C.3       1 <0>        -0.1410
     23 C21         1.3283   -3.7299   -3.0485 C.3       1 <0>        -0.1382
     24 C22        -2.1446   -4.7837   -1.9024 C.3       1 <0>        -0.1455
     25 C23         1.2015   -5.4268   -0.2069 C.3       1 <0>        -0.1385
     26 C24        -1.1857   -5.3185    0.5672 C.3       1 <0>        -0.1419
     27 H1          1.5353    1.2845   -0.0421 H         1 <0>         0.0672
     28 H2         -0.0168    1.4576   -0.8960 H         1 <0>         0.0633
     29 H3          0.0224    1.4356    0.8834 H         1 <0>         0.0819
     30 H4          0.2638   -0.5911   -2.1654 H         1 <0>         0.1163
     31 H5          0.0756   -3.1154    2.0633 H         1 <0>         0.1175
     32 H6          1.5900    0.0038    4.1039 H         1 <0>         0.1057
     33 H7          2.3530   -1.0834    2.7867 H         1 <0>         0.1000
     34 H8         -2.0284   -1.4142    3.2276 H         1 <0>         0.1117
     35 H9         -3.9368   -0.1315    4.0766 H         1 <0>         0.1261
     36 H10        -1.6744    3.4950    3.6699 H         1 <0>         0.1269
     37 H11         0.2344    2.2070    2.8299 H         1 <0>         0.1147
     38 H12        -0.1984   -5.6474   -2.3314 H         1 <0>         0.0814
     39 H13        -0.6137   -1.9601   -3.8534 H         1 <0>         0.0534
     40 H14        -1.1037   -3.6122   -4.2990 H         1 <0>         0.0558
     41 H15        -1.9821   -2.7374   -3.0217 H         1 <0>         0.0629
     42 H16         2.0210   -4.0589   -2.2739 H         1 <0>         0.0609
     43 H17         1.2427   -4.5033   -3.8117 H         1 <0>         0.0571
     44 H18         1.7002   -2.8113   -3.5023 H         1 <0>         0.0555
     45 H19        -2.5364   -3.8850   -1.4261 H         1 <0>         0.0596
     46 H20        -2.4582   -4.8079   -2.9461 H         1 <0>         0.0565
     47 H21        -2.5281   -5.6645   -1.3874 H         1 <0>         0.0584
     48 H22         1.5061   -5.4049    0.8395 H         1 <0>         0.0561
     49 H23         1.0966   -6.4616   -0.5331 H         1 <0>         0.0570
     50 H24         1.9563   -4.9288   -0.8155 H         1 <0>         0.0604
     51 H25        -2.1362   -4.8016    0.4356 H         1 <0>         0.0633
     52 H26        -1.3101   -6.3745    0.3275 H         1 <0>         0.0560
     53 H27        -0.8570   -5.2170    1.6015 H         1 <0>         0.0544
@<TRIPOS>BOND
     1    1    2 1
     2    1   27 1
     3    1   28 1
     4    1   29 1
     5    2    7 ar
     6    2    3 ar
     7    3    4 ar
     8    3   30 1
     9    4   21 1
    10    4    5 ar
    11    5    6 ar
    12    5   19 1
    13    6    7 ar
    14    6   31 1
    15    7    8 1
    16    8    9 2
    17    8   10 1
    18    9   32 1
    19    9   33 1
    20   10   15 ar
    21   10   11 ar
    22   11   12 ar
    23   11   34 1
    24   12   13 ar
    25   12   35 1
    26   13   14 ar
    27   13   16 1
    28   14   15 ar
    29   14   36 1
    30   15   37 1
    31   16   17 2
    32   16   18 1
    33   19   20 1
    34   19   25 1
    35   19   26 1
    36   20   21 1
    37   20   24 1
    38   20   38 1
    39   21   22 1
    40   21   23 1
    41   22   39 1
    42   22   40 1
    43   22   41 1
    44   23   42 1
    45   23   43 1
    46   23   44 1
    47   24   45 1
    48   24   46 1
    49   24   47 1
    50   25   48 1
    51   25   49 1
    52   25   50 1
    53   26   51 1
    54   26   52 1
    55   26   53 1
@<TRIPOS>MOLECULE
CHEMBL106837__1
   53    55     0     0     0
SMALL
USER_CHARGES

@<TRIPOS>ATOM
      1 C1          0.4294    1.0756    0.0046 C.3       1 <0>        -0.1244
      2 C2          0.2843   -0.4244    0.0006 C.ar      1 <0>        -0.0640
      3 C3          0.2144   -1.1092   -1.1944 C.ar      1 <0>        -0.1056
      4 C4          0.0809   -2.4885   -1.2051 C.ar      1 <0>        -0.0822
      5 C5          0.0172   -3.1878   -0.0126 C.ar      1 <0>        -0.0902
      6 C6          0.0866   -2.5100    1.1902 C.ar      1 <0>        -0.0866
      7 C7          0.2260   -1.1242    1.2043 C.ar      1 <0>        -0.0412
      8 C8          0.3066   -0.3964    2.4941 C.2       1 <0>        -0.0323
      9 C9          1.4343   -0.4357    3.2159 C.2       1 <0>        -0.1737
     10 C10        -0.8600    0.3740    2.9840 C.ar      1 <0>        -0.0655
     11 C11        -2.0386   -0.2896    3.3293 C.ar      1 <0>        -0.1190
     12 C12        -3.1194    0.4221    3.7825 C.ar      1 <0>        -0.0853
     13 C13        -3.0404    1.8138    3.8992 C.ar      1 <0>        -0.1277
     14 C14        -1.8585    2.4773    3.5533 C.ar      1 <0>        -0.0862
     15 C15        -0.7777    1.7623    3.1054 C.ar      1 <0>        -0.1247
     16 C16        -4.2012    2.5802    4.3857 C.2       1 <0>         0.5178
     17 O1         -5.2345    1.9994    4.6876 O.co2     1 <0>        -0.6873
     18 O2         -4.1314    3.7972    4.4875 O.co2     1 <0>        -0.6876
     19 C17        -0.1274   -4.6681   -0.2950 C.3       1 <0>        -0.0173
     20 C18        -0.5837   -4.7560   -1.7667 C.3       1 <0>        -0.0759
     21 C19        -0.0164   -3.4529   -2.3683 C.3       1 <0>        -0.0185
     22 C20        -0.9654   -2.9036   -3.4353 C.3       1 <0>        -0.1385
     23 C21         1.3691   -3.7038   -2.9670 C.3       1 <0>        -0.1396
     24 C22         0.0242   -5.9812   -2.4524 C.3       1 <0>        -0.1455
     25 C23        -1.1829   -5.2837    0.6257 C.3       1 <0>        -0.1394
     26 C24         1.2162   -5.3770   -0.1127 C.3       1 <0>        -0.1398
     27 H1          1.4873    1.3382   -0.0024 H         1 <0>         0.0673
     28 H2         -0.0537    1.4897   -0.8803 H         1 <0>         0.0634
     29 H3         -0.0403    1.4836    0.8996 H         1 <0>         0.0819
     30 H4          0.2637   -0.5673   -2.1273 H         1 <0>         0.1164
     31 H5          0.0366   -3.0562    2.1205 H         1 <0>         0.1176
     32 H6          1.4930    0.0943    4.1551 H         1 <0>         0.1058
     33 H7          2.2848   -0.9973    2.8587 H         1 <0>         0.1000
     34 H8         -2.0993   -1.3641    3.2390 H         1 <0>         0.1117
     35 H9         -4.0313   -0.0916    4.0488 H         1 <0>         0.1261
     36 H10        -1.7960    3.5517    3.6429 H         1 <0>         0.1270
     37 H11         0.1363    2.2739    2.8421 H         1 <0>         0.1148
     38 H12        -1.6715   -4.7726   -1.8347 H         1 <0>         0.0810
     39 H13        -0.5768   -1.9589   -3.8156 H         1 <0>         0.0557
     40 H14        -1.0454   -3.6193   -4.2536 H         1 <0>         0.0561
     41 H15        -1.9501   -2.7414   -2.9970 H         1 <0>         0.0573
     42 H16         2.0457   -4.0487   -2.1852 H         1 <0>         0.0614
     43 H17         1.2964   -4.4632   -3.7456 H         1 <0>         0.0619
     44 H18         1.7522   -2.7783   -3.3969 H         1 <0>         0.0532
     45 H19        -0.3147   -6.8857   -1.9473 H         1 <0>         0.0550
     46 H20        -0.2910   -6.0077   -3.4955 H         1 <0>         0.0541
     47 H21         1.1115   -5.9232   -2.4028 H         1 <0>         0.0660
     48 H22        -2.1360   -4.7766    0.4758 H         1 <0>         0.0577
     49 H23        -1.2944   -6.3429    0.3936 H         1 <0>         0.0561
     50 H24        -0.8703   -5.1702    1.6637 H         1 <0>         0.0566
     51 H25         1.5179   -5.3204    0.9332 H         1 <0>         0.0537
     52 H26         1.1184   -6.4221   -0.4065 H         1 <0>         0.0618
     53 H27         1.9695   -4.8936   -0.7347 H         1 <0>         0.0607
@<TRIPOS>BOND
     1    1    2 1
     2    1   27 1
     3    1   28 1
     4    1   29 1
     5    2    7 ar
     6    2    3 ar
     7    3    4 ar
     8    3   30 1
     9    4   21 1
    10    4    5 ar
    11    5    6 ar
    12    5   19 1
    13    6    7 ar
    14    6   31 1
    15    7    8 1
    16    8    9 2
    17    8   10 1
    18    9   32 1
    19    9   33 1
    20   10   15 ar
    21   10   11 ar
    22   11   12 ar
    23   11   34 1
    24   12   13 ar
    25   12   35 1
    26   13   14 ar
    27   13   16 1
    28   14   15 ar
    29   14   36 1
    30   15   37 1
    31   16   17 2
    32   16   18 1
    33   19   20 1
    34   19   25 1
    35   19   26 1
    36   20   21 1
    37   20   24 1
    38   20   38 1
    39   21   22 1
    40   21   23 1
    41   22   39 1
    42   22   40 1
    43   22   41 1
    44   23   42 1
    45   23   43 1
    46   23   44 1
    47   24   45 1
    48   24   46 1
    49   24   47 1
    50   25   48 1
    51   25   49 1
    52   25   50 1
    53   26   51 1
    54   26   52 1
    55   26   53 1
@<TRIPOS>MOLECULE
CHEMBL323626
   55    58     0     0     0
SMALL
USER_CHARGES

@<TRIPOS>ATOM
      1 C1         -0.0187    1.5258    0.0104 C.3       1 <0>        -0.1376
      2 C2          0.0021   -0.0041    0.0020 C.3       1 <0>        -0.0225
      3 C3         -1.4328   -0.5271   -0.0149 C.3       1 <0>        -0.1125
      4 C4         -2.0769   -0.2161    1.3413 C.3       1 <0>        -0.1097
      5 C5         -1.4248   -1.1043    2.3990 C.3       1 <0>        -0.0209
      6 C6          0.0761   -0.9993    2.3263 C.ar      1 <0>        -0.0632
      7 C7          0.7315   -0.4976    1.2240 C.ar      1 <0>        -0.0576
      8 C8          2.1187   -0.4341    1.2187 C.ar      1 <0>        -0.1195
      9 C9          2.8446   -0.8662    2.3097 C.ar      1 <0>        -0.0900
     10 C10         2.1866   -1.3661    3.4176 C.ar      1 <0>        -0.0657
     11 C11         0.8084   -1.4318    3.4241 C.ar      1 <0>        -0.0861
     12 C12         2.9717   -1.8382    4.6142 C.3       1 <0>         0.1377
     13 S1          4.4469   -0.7761    4.8899 S.3       1 <0>        -0.2476
     14 C13         3.8541    0.4149    6.1540 C.3       1 <0>        -0.0837
     15 C14         3.0340   -0.4357    7.1553 C.3       1 <0>        -0.0834
     16 S2          2.0189   -1.5864    6.1615 S.3       1 <0>        -0.2515
     17 C15         3.3676   -3.2837    4.4570 C.ar      1 <0>        -0.0780
     18 C16         2.5262   -4.2819    4.9159 C.ar      1 <0>        -0.1045
     19 C17         2.8822   -5.6070    4.7759 C.ar      1 <0>        -0.0839
     20 C18         4.0954   -5.9404    4.1684 C.ar      1 <0>        -0.1200
     21 C19         4.9396   -4.9273    3.7070 C.ar      1 <0>        -0.0838
     22 C20         4.5682   -3.6067    3.8492 C.ar      1 <0>        -0.1094
     23 C21         4.4834   -7.3556    4.0153 C.2       1 <0>         0.5192
     24 O1          3.7424   -8.2401    4.4206 O.co2     1 <0>        -0.6857
     25 O2          5.5460   -7.6442    3.4832 O.co2     1 <0>        -0.6859
     26 C22        -1.8947   -0.6643    3.7869 C.3       1 <0>        -0.1418
     27 C23        -1.8409   -2.5577    2.1636 C.3       1 <0>        -0.1414
     28 C24         0.7308   -0.4918   -1.2518 C.3       1 <0>        -0.1429
     29 H1          1.0039    1.9031    0.0027 H         1 <0>         0.0554
     30 H2         -0.5459    1.8868   -0.8726 H         1 <0>         0.0564
     31 H3         -0.5289    1.8773    0.9072 H         1 <0>         0.0573
     32 H4         -1.9937   -0.0346   -0.8092 H         1 <0>         0.0654
     33 H5         -1.4289   -1.6043   -0.1811 H         1 <0>         0.0702
     34 H6         -1.9161    0.8323    1.5924 H         1 <0>         0.0674
     35 H7         -3.1461   -0.4235    1.2962 H         1 <0>         0.0659
     36 H8          2.6337   -0.0437    0.3534 H         1 <0>         0.1231
     37 H9          3.9233   -0.8142    2.2978 H         1 <0>         0.1274
     38 H10         0.2950   -1.8229    4.2900 H         1 <0>         0.1289
     39 H11         4.6991    0.8834    6.6585 H         1 <0>         0.1239
     40 H12         3.2203    1.1723    5.6927 H         1 <0>         0.0979
     41 H13         3.7054   -0.9970    7.8052 H         1 <0>         0.1022
     42 H14         2.3895    0.2095    7.7524 H         1 <0>         0.1182
     43 H15         1.5887   -4.0227    5.3853 H         1 <0>         0.1180
     44 H16         2.2248   -6.3850    5.1351 H         1 <0>         0.1296
     45 H17         5.8789   -5.1778    3.2365 H         1 <0>         0.1292
     46 H18         5.2177   -2.8226    3.4891 H         1 <0>         0.1148
     47 H19        -2.9789   -0.7573    3.8498 H         1 <0>         0.0564
     48 H20        -1.4313   -1.2961    4.5447 H         1 <0>         0.0614
     49 H21        -1.6088    0.3740    3.9551 H         1 <0>         0.0548
     50 H22        -1.5164   -2.8725    1.1718 H         1 <0>         0.0588
     51 H23        -1.3773   -3.1949    2.9168 H         1 <0>         0.0584
     52 H24        -2.9254   -2.6413    2.2347 H         1 <0>         0.0573
     53 H25         1.7527   -0.1125   -1.2487 H         1 <0>         0.0589
     54 H26         0.7477   -1.5816   -1.2614 H         1 <0>         0.0582
     55 H27         0.2111   -0.1286   -2.1384 H         1 <0>         0.0565
@<TRIPOS>BOND
     1    1    2 1
     2    1   29 1
     3    1   30 1
     4    1   31 1
     5    2    7 1
     6    2    3 1
     7    2   28 1
     8    3    4 1
     9    3   32 1
    10    3   33 1
    11    4    5 1
    12    4   34 1
    13    4   35 1
    14    5    6 1
    15    5   26 1
    16    5   27 1
    17    6   11 ar
    18    6    7 ar
    19    7    8 ar
    20    8    9 ar
    21    8   36 1
    22    9   10 ar
    23    9   37 1
    24   10   11 ar
    25   10   12 1
    26   11   38 1
    27   12   16 1
    28   12   13 1
    29   12   17 1
    30   13   14 1
    31   14   15 1
    32   14   39 1
    33   14   40 1
    34   15   16 1
    35   15   41 1
    36   15   42 1
    37   17   22 ar
    38   17   18 ar
    39   18   19 ar
    40   18   43 1
    41   19   20 ar
    42   19   44 1
    43   20   21 ar
    44   20   23 1
    45   21   22 ar
    46   21   45 1
    47   22   46 1
    48   23   24 2
    49   23   25 1
    50   26   47 1
    51   26   48 1
    52   26   49 1
    53   27   50 1
    54   27   51 1
    55   27   52 1
    56   28   53 1
    57   28   54 1
    58   28   55 1
@<TRIPOS>MOLECULE
CHEMBL347411
   49    50     0     0     0
SMALL
USER_CHARGES

@<TRIPOS>ATOM
      1 C1         -2.2100   -2.1386   -2.0546 C.3       1 <0>        -0.1276
      2 C2         -1.0431   -2.0861   -1.1023 C.2       1 <0>        -0.1077
      3 C3         -1.0110   -1.1131   -0.2091 C.2       1 <0>        -0.0948
      4 C4          0.0938   -0.9369    0.7917 C.3       1 <0>        -0.0167
      5 C5          0.9054   -2.2283    0.9129 C.3       1 <0>        -0.1104
      6 C6          1.2879   -2.6975   -0.4962 C.3       1 <0>        -0.1216
      7 C7          0.0137   -3.1457   -1.2184 C.3       1 <0>        -0.0817
      8 C8          1.0129    0.1990    0.3379 C.3       1 <0>        -0.1379
      9 C9         -0.5072   -0.5857    2.1542 C.3       1 <0>        -0.1399
     10 C10        -2.1136   -0.1534   -0.1949 C.2       1 <0>        -0.0934
     11 C11        -3.3874   -0.5869   -0.0291 C.2       1 <0>        -0.0834
     12 C12        -4.4430    0.3459    0.0747 C.2       1 <0>         0.0196
     13 C13        -5.8005    0.0436    0.2530 C.2       1 <0>        -0.1089
     14 C14        -6.4816    1.3441    0.3001 C.2       1 <0>        -0.2061
     15 C15        -5.5259    2.2754    0.1536 C.2       1 <0>        -0.0312
     16 O1         -4.3271    1.6853    0.0263 O.3       1 <0>        -0.1806
     17 C16        -6.3887   -1.2402    0.3635 C.2       1 <0>        -0.1156
     18 C17        -7.7346   -1.3601    0.5351 C.2       1 <0>        -0.0772
     19 C18        -8.3171   -2.6314    0.6445 C.2       1 <0>        -0.0796
     20 C19        -9.6668   -2.7516    0.8166 C.2       1 <0>        -0.1359
     21 C20       -10.2315   -4.0097    1.0811 C.2       1 <0>         0.4398
     22 O2         -9.4422   -5.0649    1.2879 O.co2     1 <0>        -0.6910
     23 O3        -11.5573   -4.1497    1.1257 O.co2     1 <0>        -0.7154
     24 C21        -7.4539   -3.8645    0.5723 C.3       1 <0>        -0.1010
     25 H1         -2.0485   -2.9326   -2.7836 H         1 <0>         0.0583
     26 H2         -3.1252   -2.3376   -1.4971 H         1 <0>         0.0730
     27 H3         -2.3001   -1.1833   -2.5718 H         1 <0>         0.0658
     28 H4          1.8083   -2.0401    1.4938 H         1 <0>         0.0648
     29 H5          0.3041   -2.9939    1.4031 H         1 <0>         0.0661
     30 H6          1.7531   -1.8765   -1.0418 H         1 <0>         0.0665
     31 H7          1.9823   -3.5349   -0.4273 H         1 <0>         0.0640
     32 H8         -0.3519   -4.0710   -0.7731 H         1 <0>         0.0761
     33 H9          0.2387   -3.3178   -2.2709 H         1 <0>         0.0711
     34 H10         0.4389    1.1226    0.2624 H         1 <0>         0.0548
     35 H11         1.8159    0.3285    1.0634 H         1 <0>         0.0555
     36 H12         1.4385   -0.0448   -0.6356 H         1 <0>         0.0565
     37 H13        -1.0981   -1.4262    2.5181 H         1 <0>         0.0566
     38 H14         0.2948   -0.3723    2.8609 H         1 <0>         0.0544
     39 H15        -1.1463    0.2915    2.0541 H         1 <0>         0.0583
     40 H16        -1.9135    0.9009   -0.3165 H         1 <0>         0.1180
     41 H17        -3.5950   -1.6455    0.0237 H         1 <0>         0.1445
     42 H18        -7.5401    1.5167    0.4271 H         1 <0>         0.1531
     43 H19        -5.6960    3.3418    0.1437 H         1 <0>         0.2005
     44 H20        -5.7701   -2.1239    0.3117 H         1 <0>         0.1258
     45 H21        -8.3532   -0.4764    0.5869 H         1 <0>         0.1117
     46 H22       -10.2997   -1.8791    0.7491 H         1 <0>         0.1084
     47 H23        -7.1988   -4.1891    1.5811 H         1 <0>         0.0663
     48 H24        -7.9976   -4.6592    0.0615 H         1 <0>         0.0956
     49 H25        -6.5409   -3.6372    0.0220 H         1 <0>         0.0322
@<TRIPOS>BOND
     1    1    2 1
     2    1   25 1
     3    1   26 1
     4    1   27 1
     5    2    7 1
     6    2    3 2
     7    3    4 1
     8    3   10 1
     9    4    5 1
    10    4    8 1
    11    4    9 1
    12    5    6 1
    13    5   28 1
    14    5   29 1
    15    6    7 1
    16    6   30 1
    17    6   31 1
    18    7   32 1
    19    7   33 1
    20    8   34 1
    21    8   35 1
    22    8   36 1
    23    9   37 1
    24    9   38 1
    25    9   39 1
    26   10   11 2
    27   10   40 1
    28   11   12 1
    29   11   41 1
    30   12   16 1
    31   12   13 2
    32   13   14 1
    33   13   17 1
    34   14   15 2
    35   14   42 1
    36   15   16 1
    37   15   43 1
    38   17   18 2
    39   17   44 1
    40   18   19 1
    41   18   45 1
    42   19   20 2
    43   19   24 1
    44   20   21 1
    45   20   46 1
    46   21   22 2
    47   21   23 1
    48   24   47 1
    49   24   48 1
    50   24   49 1
@<TRIPOS>MOLECULE
CHEMBL184497
   66    69     0     0     0
SMALL
USER_CHARGES

@<TRIPOS>ATOM
      1 C1         -0.0187    1.5258    0.0104 C.3       1 <0>        -0.1522
      2 C2          0.0021   -0.0041    0.0020 C.3       1 <0>        -0.1196
      3 C3         -1.4333   -0.5336    0.0129 C.3       1 <0>        -0.1203
      4 C4         -1.4126   -2.0635    0.0045 C.3       1 <0>         0.0596
      5 O1         -2.7532   -2.5581    0.0146 O.3       1 <0>        -0.3018
      6 C5         -2.9129   -3.9071    0.0089 C.ar      1 <0>         0.1466
      7 C6         -1.8086   -4.7391   -0.0003 C.ar      1 <0>        -0.2106
      8 C7         -1.9612   -6.1195   -0.0037 C.ar      1 <0>        -0.0229
      9 C8         -3.2247   -6.6722    0.0054 C.ar      1 <0>        -0.0988
     10 C9         -4.3396   -5.8475    0.0105 C.ar      1 <0>        -0.0630
     11 C10        -4.1954   -4.4646    0.0181 C.ar      1 <0>        -0.0610
     12 C11        -5.3913   -3.5885    0.0310 C.2       1 <0>         0.0261
     13 C12        -5.7447   -2.9535    1.1571 C.2       1 <0>        -0.1522
     14 C13        -5.4875   -2.6462    2.6098 C.3       1 <0>        -0.1375
     15 C14        -6.6832   -2.0256    1.8846 C.3       1 <0>        -0.1090
     16 C15        -6.1953   -3.4149   -1.2005 C.ar      1 <0>         0.1537
     17 C16        -5.8221   -4.0852   -2.3668 C.ar      1 <0>        -0.1714
     18 C17        -6.5763   -3.9189   -3.5100 C.ar      1 <0>        -0.0473
     19 C18        -7.6971   -3.0757   -3.4530 C.ar      1 <0>        -0.1807
     20 C19        -8.0071   -2.4386   -2.2479 C.ar      1 <0>         0.1272
     21 N1         -7.2652   -2.6277   -1.1791 N.ar      1 <0>        -0.4830
     22 C20        -8.5347   -2.8645   -4.6468 C.2       1 <0>         0.5245
     23 O2         -8.2554   -3.4259   -5.6970 O.co2     1 <0>        -0.6852
     24 O3         -9.5094   -2.1279   -4.5874 O.co2     1 <0>        -0.6833
     25 C21        -3.4576   -8.1607    0.0187 C.3       1 <0>        -0.0168
     26 C22        -2.1981   -8.9060   -0.4179 C.3       1 <0>        -0.1115
     27 C23        -1.0180   -8.3906    0.4142 C.3       1 <0>        -0.1100
     28 C24        -0.7104   -6.9595   -0.0214 C.3       1 <0>        -0.0235
     29 C25        -0.1340   -6.9765   -1.4386 C.3       1 <0>        -0.1394
     30 C26         0.3190   -6.3518    0.9336 C.3       1 <0>        -0.1402
     31 C27        -3.8377   -8.5991    1.4344 C.3       1 <0>        -0.1388
     32 C28        -4.6021   -8.5008   -0.9380 C.3       1 <0>        -0.1455
     33 H1          1.0039    1.9031    0.0027 H         1 <0>         0.0554
     34 H2         -0.5459    1.8868   -0.8726 H         1 <0>         0.0569
     35 H3         -0.5289    1.8773    0.9072 H         1 <0>         0.0555
     36 H4          0.5123   -0.3556   -0.8948 H         1 <0>         0.0638
     37 H5          0.5293   -0.3651    0.8851 H         1 <0>         0.0627
     38 H6         -1.9435   -0.1821    0.9097 H         1 <0>         0.0731
     39 H7         -1.9605   -0.1726   -0.8702 H         1 <0>         0.0751
     40 H8         -0.9024   -2.4150   -0.8923 H         1 <0>         0.0590
     41 H9         -0.8854   -2.4246    0.8875 H         1 <0>         0.0581
     42 H10        -0.8171   -4.3110   -0.0053 H         1 <0>         0.1269
     43 H11        -5.3279   -6.2831    0.0123 H         1 <0>         0.1296
     44 H12        -5.6870   -3.4352    3.3350 H         1 <0>         0.0969
     45 H13        -4.6497   -1.9900    2.8456 H         1 <0>         0.0971
     46 H14        -6.6274   -0.9634    1.6461 H         1 <0>         0.1005
     47 H15        -7.6765   -2.4024    2.1282 H         1 <0>         0.1011
     48 H16        -4.9529   -4.7262   -2.3742 H         1 <0>         0.1234
     49 H17        -6.3107   -4.4248   -4.4265 H         1 <0>         0.1353
     50 H18        -8.8672   -1.7878   -2.1931 H         1 <0>         0.1612
     51 H19        -2.3271   -9.9751   -0.2491 H         1 <0>         0.0660
     52 H20        -2.0102   -8.7209   -1.4755 H         1 <0>         0.0695
     53 H21        -1.2810   -8.4039    1.4719 H         1 <0>         0.0686
     54 H22        -0.1457   -9.0216    0.2443 H         1 <0>         0.0654
     55 H23         0.1053   -5.9584   -1.7457 H         1 <0>         0.0548
     56 H24         0.7712   -7.5834   -1.4555 H         1 <0>         0.0574
     57 H25        -0.8681   -7.3998   -2.1243 H         1 <0>         0.0608
     58 H26        -0.0913   -6.3287    1.9432 H         1 <0>         0.0563
     59 H27         1.2256   -6.9569    0.9236 H         1 <0>         0.0573
     60 H28         0.5560   -5.3369    0.6144 H         1 <0>         0.0557
     61 H29        -4.7478   -8.0841    1.7422 H         1 <0>         0.0560
     62 H30        -4.0071   -9.6758    1.4482 H         1 <0>         0.0561
     63 H31        -3.0291   -8.3496    2.1215 H         1 <0>         0.0563
     64 H32        -4.3397   -8.1811   -1.9465 H         1 <0>         0.0588
     65 H33        -4.7737   -9.5772   -0.9312 H         1 <0>         0.0569
     66 H34        -5.5082   -7.9864   -0.6180 H         1 <0>         0.0601
@<TRIPOS>BOND
     1    1    2 1
     2    1   33 1
     3    1   34 1
     4    1   35 1
     5    2    3 1
     6    2   36 1
     7    2   37 1
     8    3    4 1
     9    3   38 1
    10    3   39 1
    11    4    5 1
    12    4   40 1
    13    4   41 1
    14    5    6 1
    15    6   11 ar
    16    6    7 ar
    17    7    8 ar
    18    7   42 1
    19    8   28 1
    20    8    9 ar
    21    9   10 ar
    22    9   25 1
    23   10   11 ar
    24   10   43 1
    25   11   12 1
    26   12   13 2
    27   12   16 1
    28   13   15 1
    29   13   14 1
    30   14   15 1
    31   14   44 1
    32   14   45 1
    33   15   46 1
    34   15   47 1
    35   16   21 ar
    36   16   17 ar
    37   17   18 ar
    38   17   48 1
    39   18   19 ar
    40   18   49 1
    41   19   20 ar
    42   19   22 1
    43   20   21 ar
    44   20   50 1
    45   22   23 2
    46   22   24 1
    47   25   26 1
    48   25   31 1
    49   25   32 1
    50   26   27 1
    51   26   51 1
    52   26   52 1
    53   27   28 1
    54   27   53 1
    55   27   54 1
    56   28   29 1
    57   28   30 1
    58   29   55 1
    59   29   56 1
    60   29   57 1
    61   30   58 1
    62   30   59 1
    63   30   60 1
    64   31   61 1
    65   31   62 1
    66   31   63 1
    67   32   64 1
    68   32   65 1
    69   32   66 1
@<TRIPOS>MOLECULE
CHEMBL42314
   63    63     0     0     0
SMALL
USER_CHARGES

@<TRIPOS>ATOM
      1 C1         -2.8798    0.9940    1.3658 C.3       1 <0>        -0.0940
      2 C2         -1.7733    0.0941    0.8790 C.2       1 <0>        -0.0823
      3 C3         -1.2319   -0.8372    1.7180 C.2       1 <0>        -0.1340
      4 C4         -1.5758   -0.8400    3.0805 C.2       1 <0>         0.4392
      5 O1         -2.3228    0.1445    3.5816 O.co2     1 <0>        -0.6905
      6 O2         -1.1552   -1.8271    3.8723 O.co2     1 <0>        -0.7149
      7 C5         -1.2998    0.2132   -0.4359 C.2       1 <0>        -0.0781
      8 C6         -1.8407    1.1436   -1.2739 C.2       1 <0>        -0.1556
      9 C7         -1.3657    1.2631   -2.5928 C.2       1 <0>        -0.1063
     10 C8         -1.9037    2.1884   -3.4263 C.2       1 <0>        -0.0935
     11 C9         -1.3949    2.3164   -4.8390 C.3       1 <0>        -0.1044
     12 C10        -2.9811    3.0647   -2.9523 C.ar      1 <0>        -0.0530
     13 C11        -2.6946    4.1321   -2.0923 C.ar      1 <0>        -0.0995
     14 C12        -3.7114    4.9503   -1.6523 C.ar      1 <0>        -0.0657
     15 C13        -5.0175    4.7224   -2.0559 C.ar      1 <0>        -0.1077
     16 C14        -5.3154    3.6731   -2.9040 C.ar      1 <0>        -0.0753
     17 C15        -4.3063    2.8418   -3.3628 C.ar      1 <0>         0.0979
     18 O3         -4.5972    1.8142   -4.2000 O.3       1 <0>        -0.3076
     19 C16        -4.6595    0.5072   -3.6256 C.3       1 <0>        -0.0030
     20 C17        -5.0633   -0.5037   -4.7008 C.3       1 <0>         0.2724
     21 F1         -6.3178   -0.1604   -5.2160 F         1 <0>        -0.1985
     22 F2         -4.1169   -0.4917   -5.7311 F         1 <0>        -0.1979
     23 C18        -6.7397    3.4359   -3.3355 C.3       1 <0>        -0.0195
     24 C19        -7.6227    4.5786   -2.8303 C.3       1 <0>        -0.1441
     25 C20        -6.8067    3.3766   -4.8629 C.3       1 <0>        -0.1419
     26 C21        -7.2357    2.1116   -2.7515 C.3       1 <0>        -0.1513
     27 C22        -3.4022    6.0989   -0.7269 C.3       1 <0>        -0.0276
     28 C23        -1.9003    6.1302   -0.4370 C.3       1 <0>        -0.1467
     29 C24        -3.8216    7.4135   -1.3878 C.3       1 <0>        -0.1367
     30 C25        -4.1709    5.9190    0.5837 C.3       1 <0>        -0.1410
     31 H1         -2.4502    1.8428    1.8979 H         1 <0>         0.0666
     32 H2         -3.4570    1.3536    0.5140 H         1 <0>         0.0306
     33 H3         -3.5324    0.4366    2.0377 H         1 <0>         0.0890
     34 H4         -0.5392   -1.5717    1.3344 H         1 <0>         0.1084
     35 H5         -0.5068   -0.4317   -0.7847 H         1 <0>         0.1116
     36 H6         -2.6337    1.7886   -0.9251 H         1 <0>         0.1215
     37 H7         -0.5728    0.6182   -2.9416 H         1 <0>         0.1160
     38 H8         -1.9691    1.6599   -5.4928 H         1 <0>         0.0724
     39 H9         -1.5049    3.3482   -5.1727 H         1 <0>         0.0602
     40 H10        -0.3428    2.0336   -4.8733 H         1 <0>         0.0629
     41 H11        -1.6784    4.3132   -1.7746 H         1 <0>         0.1314
     42 H12        -5.8079    5.3691   -1.7047 H         1 <0>         0.1292
     43 H13        -3.6821    0.2397   -3.2242 H         1 <0>         0.0912
     44 H14        -5.3969    0.4979   -2.8229 H         1 <0>         0.0911
     45 H15        -5.1109   -1.5006   -4.2627 H         1 <0>         0.1257
     46 H16        -7.2693    5.5221   -3.2463 H         1 <0>         0.0566
     47 H17        -8.6529    4.4071   -3.1424 H         1 <0>         0.0572
     48 H18        -7.5750    4.6209   -1.7421 H         1 <0>         0.0580
     49 H19        -6.1776    2.5625   -5.2229 H         1 <0>         0.0806
     50 H20        -7.8369    3.2051   -5.1750 H         1 <0>         0.0509
     51 H21        -6.4533    4.3201   -5.2790 H         1 <0>         0.0483
     52 H22        -7.0446    2.0934   -1.6785 H         1 <0>         0.0550
     53 H23        -8.3062    2.0133   -2.9316 H         1 <0>         0.0586
     54 H24        -6.7096    1.2845   -3.2283 H         1 <0>         0.0662
     55 H25        -1.3526    6.2584   -1.3707 H         1 <0>         0.0570
     56 H26        -1.6767    6.9609    0.2323 H         1 <0>         0.0580
     57 H27        -1.6015    5.1937    0.0339 H         1 <0>         0.0631
     58 H28        -4.8917    7.3911   -1.5943 H         1 <0>         0.0555
     59 H29        -3.5980    8.2442   -0.7185 H         1 <0>         0.0576
     60 H30        -3.2740    7.5416   -2.3215 H         1 <0>         0.0549
     61 H31        -3.8721    4.9824    1.0546 H         1 <0>         0.0623
     62 H32        -3.9473    6.7497    1.2531 H         1 <0>         0.0581
     63 H33        -5.2410    5.8966    0.3772 H         1 <0>         0.0554
@<TRIPOS>BOND
     1    1    2 1
     2    1   31 1
     3    1   32 1
     4    1   33 1
     5    2    3 2
     6    2    7 1
     7    3    4 1
     8    3   34 1
     9    4    5 2
    10    4    6 1
    11    7    8 2
    12    7   35 1
    13    8    9 1
    14    8   36 1
    15    9   10 2
    16    9   37 1
    17   10   11 1
    18   10   12 1
    19   11   38 1
    20   11   39 1
    21   11   40 1
    22   12   17 ar
    23   12   13 ar
    24   13   14 ar
    25   13   41 1
    26   14   15 ar
    27   14   27 1
    28   15   16 ar
    29   15   42 1
    30   16   17 ar
    31   16   23 1
    32   17   18 1
    33   18   19 1
    34   19   20 1
    35   19   43 1
    36   19   44 1
    37   20   21 1
    38   20   22 1
    39   20   45 1
    40   23   24 1
    41   23   25 1
    42   23   26 1
    43   24   46 1
    44   24   47 1
    45   24   48 1
    46   25   49 1
    47   25   50 1
    48   25   51 1
    49   26   52 1
    50   26   53 1
    51   26   54 1
    52   27   28 1
    53   27   29 1
    54   27   30 1
    55   28   55 1
    56   28   56 1
    57   28   57 1
    58   29   58 1
    59   29   59 1
    60   29   60 1
    61   30   61 1
    62   30   62 1
    63   30   63 1
@<TRIPOS>MOLECULE
CHEMBL130232
   58    59     0     0     0
SMALL
USER_CHARGES

@<TRIPOS>ATOM
      1 C1         -0.3093    1.6905    0.1731 C.3       1 <0>        -0.1468
      2 C2         -0.1994    0.1663    0.0985 C.3       1 <0>        -0.0592
      3 C3          0.5946   -0.3473    1.3013 C.3       1 <0>        -0.1401
      4 C4         -1.5797   -0.4383    0.1125 C.ar      1 <0>        -0.0864
      5 C5         -2.4189   -0.2104    1.1837 C.ar      1 <0>        -0.0917
      6 C6         -3.6999   -0.7653    1.2065 C.ar      1 <0>        -0.0471
      7 C7         -4.1368   -1.5521    0.1483 C.ar      1 <0>        -0.0863
      8 C8         -3.2893   -1.7852   -0.9388 C.ar      1 <0>        -0.0386
      9 C9         -2.0035   -1.2164   -0.9534 C.ar      1 <0>         0.1053
     10 O1         -1.1766   -1.4335   -2.0070 O.3       1 <0>        -0.3124
     11 C10        -1.1672   -0.4448   -3.0387 C.3       1 <0>         0.0097
     12 C11        -0.2776   -0.9178   -4.1902 C.3       1 <0>         0.2736
     13 F1          1.0258   -1.1154   -3.7217 F         1 <0>        -0.2004
     14 F2         -0.7767   -2.1206   -4.7014 F         1 <0>        -0.1959
     15 C12        -3.7415   -2.6150   -2.0617 C.2       1 <0>        -0.0984
     16 C13        -4.6418   -2.1231   -2.9491 C.2       1 <0>        -0.0975
     17 C14        -5.1422   -0.8175   -2.7930 C.2       1 <0>        -0.1589
     18 C15        -6.0475   -0.3228   -3.6854 C.2       1 <0>        -0.0749
     19 C16        -6.5464    0.9789   -3.5298 C.2       1 <0>        -0.0835
     20 C17        -7.4526    1.4740   -4.4230 C.2       1 <0>        -0.1326
     21 C18        -7.8288    2.8268   -4.3656 C.2       1 <0>         0.4392
     22 O2         -7.2152    3.6540   -3.5186 O.co2     1 <0>        -0.6903
     23 O3         -8.7993    3.2832   -5.1581 O.co2     1 <0>        -0.7141
     24 C19        -6.0821    1.8309   -2.3767 C.3       1 <0>        -0.0977
     25 C20        -3.2055   -4.0135   -2.2289 C.3       1 <0>        -0.1025
     26 C21        -4.5955   -0.5148    2.3628 C.ar      1 <0>        -0.0093
     27 C22        -4.1622    0.2784    3.4237 C.ar      1 <0>        -0.1222
     28 C23        -4.9983    0.5089    4.4973 C.ar      1 <0>        -0.0870
     29 C24        -6.2650   -0.0458    4.5229 C.ar      1 <0>        -0.1554
     30 C25        -6.7017   -0.8355    3.4719 C.ar      1 <0>         0.1046
     31 C26        -5.8740   -1.0669    2.3888 C.ar      1 <0>        -0.1451
     32 F3         -7.9397   -1.3755    3.5027 F         1 <0>        -0.1380
     33 H1          0.6891    2.1277    0.1630 H         1 <0>         0.0600
     34 H2         -0.8749    2.0563   -0.6838 H         1 <0>         0.0563
     35 H3         -0.8205    1.9732    1.0934 H         1 <0>         0.0583
     36 H4          0.3118   -0.1165   -0.8218 H         1 <0>         0.0856
     37 H5          0.0834   -0.0645    2.2216 H         1 <0>         0.0555
     38 H6          0.6729   -1.4332    1.2482 H         1 <0>         0.0567
     39 H7          1.5930    0.0900    1.2912 H         1 <0>         0.0586
     40 H8         -2.0831    0.4001    2.0089 H         1 <0>         0.1306
     41 H9         -5.1272   -1.9823    0.1655 H         1 <0>         0.1324
     42 H10        -2.1826   -0.2909   -3.4037 H         1 <0>         0.0904
     43 H11        -0.7783    0.4923   -2.6404 H         1 <0>         0.0848
     44 H12        -0.2704   -0.1637   -4.9772 H         1 <0>         0.1272
     45 H13        -4.9746   -2.7337   -3.7755 H         1 <0>         0.1173
     46 H14        -4.8094   -0.2068   -1.9667 H         1 <0>         0.1202
     47 H15        -6.3803   -0.9334   -4.5117 H         1 <0>         0.1124
     48 H16        -7.8804    0.8260   -5.1737 H         1 <0>         0.1088
     49 H17        -5.2631    2.4711   -2.7047 H         1 <0>         0.0636
     50 H18        -6.9084    2.4491   -2.0259 H         1 <0>         0.0943
     51 H19        -5.7389    1.1888   -1.5656 H         1 <0>         0.0314
     52 H20        -3.7915   -4.7023   -1.6205 H         1 <0>         0.0641
     53 H21        -3.2739   -4.3059   -3.2767 H         1 <0>         0.0647
     54 H22        -2.1635   -4.0438   -1.9105 H         1 <0>         0.0661
     55 H23        -3.1732    0.7118    3.4059 H         1 <0>         0.1318
     56 H24        -4.6625    1.1235    5.3194 H         1 <0>         0.1347
     57 H25        -6.9156    0.1370    5.3653 H         1 <0>         0.1353
     58 H26        -6.2163   -1.6783    1.5669 H         1 <0>         0.1392
@<TRIPOS>BOND
     1    1    2 1
     2    1   33 1
     3    1   34 1
     4    1   35 1
     5    2    3 1
     6    2    4 1
     7    2   36 1
     8    3   37 1
     9    3   38 1
    10    3   39 1
    11    4    9 ar
    12    4    5 ar
    13    5    6 ar
    14    5   40 1
    15    6    7 ar
    16    6   26 1
    17    7    8 ar
    18    7   41 1
    19    8    9 ar
    20    8   15 1
    21    9   10 1
    22   10   11 1
    23   11   12 1
    24   11   42 1
    25   11   43 1
    26   12   13 1
    27   12   14 1
    28   12   44 1
    29   15   16 2
    30   15   25 1
    31   16   17 1
    32   16   45 1
    33   17   18 2
    34   17   46 1
    35   18   19 1
    36   18   47 1
    37   19   20 2
    38   19   24 1
    39   20   21 1
    40   20   48 1
    41   21   22 2
    42   21   23 1
    43   24   49 1
    44   24   50 1
    45   24   51 1
    46   25   52 1
    47   25   53 1
    48   25   54 1
    49   26   31 ar
    50   26   27 ar
    51   27   28 ar
    52   27   55 1
    53   28   29 ar
    54   28   56 1
    55   29   30 ar
    56   29   57 1
    57   30   31 ar
    58   30   32 1
    59   31   58 1
@<TRIPOS>MOLECULE
CHEMBL130577
   59    60     0     0     0
SMALL
USER_CHARGES

@<TRIPOS>ATOM
      1 C1         -0.0483    1.2211   -0.3355 C.3       1 <0>        -0.1446
      2 C2         -0.2105   -0.2951   -0.4606 C.3       1 <0>        -0.0555
      3 C3          0.6827   -0.9903    0.5688 C.3       1 <0>        -0.1471
      4 C4         -1.6491   -0.6687   -0.2113 C.ar      1 <0>        -0.0677
      5 C5         -2.2388   -0.3626    0.9980 C.ar      1 <0>        -0.0927
      6 C6         -3.5699   -0.7074    1.2295 C.ar      1 <0>        -0.0382
      7 C7         -4.2998   -1.3632    0.2307 C.ar      1 <0>         0.0972
      8 C8         -3.6937   -1.6637   -0.9782 C.ar      1 <0>        -0.0756
      9 C9         -2.3751   -1.3122   -1.1983 C.ar      1 <0>        -0.0996
     10 C10        -4.4744   -2.3698   -2.0565 C.3       1 <0>        -0.0615
     11 C11        -4.5248   -1.4913   -3.3081 C.3       1 <0>        -0.1430
     12 C12        -3.7932   -3.6979   -2.3928 C.3       1 <0>        -0.1430
     13 O1         -5.5967   -1.7037    0.4464 O.3       1 <0>        -0.3000
     14 C13        -6.5890   -0.7417    0.0834 C.3       1 <0>         0.0198
     15 C14        -7.9788   -1.2991    0.3976 C.3       1 <0>         0.4626
     16 F1         -8.0730   -1.5726    1.7663 F         1 <0>        -0.1692
     17 F2         -8.9503   -0.3573    0.0422 F         1 <0>        -0.1775
     18 F3         -8.1838   -2.4772   -0.3285 F         1 <0>        -0.1719
     19 C15        -4.2079   -0.3822    2.5248 C.ar      1 <0>        -0.1129
     20 C16        -4.4048    0.9433    2.9070 C.ar      1 <0>         0.1142
     21 N1         -4.9716    1.2344    4.0589 N.ar      1 <0>        -0.4980
     22 C17        -5.3782    0.3021    4.9007 C.ar      1 <0>         0.1047
     23 C18        -5.2270   -1.0374    4.6117 C.ar      1 <0>        -0.1785
     24 C19        -4.6349   -1.4099    3.3961 C.ar      1 <0>         0.0451
     25 C20        -4.4584   -2.8242    3.0422 C.2       1 <0>        -0.1561
     26 C21        -4.8753   -3.7923    3.8929 C.2       1 <0>        -0.0492
     27 C22        -4.7057   -5.1507    3.5530 C.2       1 <0>        -0.1052
     28 C23        -5.1243   -6.1227    4.4070 C.2       1 <0>        -0.1536
     29 C24        -4.8191   -7.4744    4.1416 C.2       1 <0>         0.4959
     30 O2         -4.0852   -7.7642    3.2036 O.co2     1 <0>        -0.6799
     31 O3         -5.2878   -8.3589    4.8490 O.co2     1 <0>        -0.7015
     32 C25        -4.0606   -5.5249    2.2434 C.3       1 <0>        -0.0926
     33 H1          0.9922    1.4913   -0.5158 H         1 <0>         0.0580
     34 H2         -0.6846    1.7164   -1.0689 H         1 <0>         0.0557
     35 H3         -0.3368    1.5358    0.6674 H         1 <0>         0.0574
     36 H4          0.0780   -0.6098   -1.4635 H         1 <0>         0.0787
     37 H5          0.5671   -2.0705    0.4797 H         1 <0>         0.0594
     38 H6          1.7232   -0.7201    0.3885 H         1 <0>         0.0582
     39 H7          0.3941   -0.6756    1.5717 H         1 <0>         0.0576
     40 H8         -1.6701    0.1430    1.7643 H         1 <0>         0.1281
     41 H9         -1.9077   -1.5448   -2.1437 H         1 <0>         0.1278
     42 H10        -5.4885   -2.5604   -1.7053 H         1 <0>         0.0854
     43 H11        -3.5107   -1.3007   -3.6594 H         1 <0>         0.0577
     44 H12        -5.0895   -2.0020   -4.0881 H         1 <0>         0.0604
     45 H13        -5.0101   -0.5451   -3.0686 H         1 <0>         0.0511
     46 H14        -4.3579   -4.2087   -3.1727 H         1 <0>         0.0596
     47 H15        -2.7790   -3.5073   -2.7440 H         1 <0>         0.0553
     48 H16        -3.7572   -4.3238   -1.5011 H         1 <0>         0.0634
     49 H17        -6.4293    0.1762    0.6491 H         1 <0>         0.0955
     50 H18        -6.5156   -0.5286   -0.9831 H         1 <0>         0.0979
     51 H19        -4.0884    1.7408    2.2510 H         1 <0>         0.1508
     52 H20        -5.8376    0.5943    5.8334 H         1 <0>         0.1537
     53 H21        -5.5636   -1.7894    5.3100 H         1 <0>         0.1378
     54 H22        -3.9961   -3.0924    2.1038 H         1 <0>         0.1314
     55 H23        -5.3376   -3.5241    4.8313 H         1 <0>         0.1109
     56 H24        -5.6904   -5.8600    5.2884 H         1 <0>         0.0991
     57 H25        -2.9977   -5.7076    2.4011 H         1 <0>         0.0600
     58 H26        -4.5302   -6.4273    1.8519 H         1 <0>         0.0910
     59 H27        -4.1874   -4.7105    1.5301 H         1 <0>         0.0329
@<TRIPOS>BOND
     1    1    2 1
     2    1   33 1
     3    1   34 1
     4    1   35 1
     5    2    3 1
     6    2    4 1
     7    2   36 1
     8    3   37 1
     9    3   38 1
    10    3   39 1
    11    4    9 ar
    12    4    5 ar
    13    5    6 ar
    14    5   40 1
    15    6    7 ar
    16    6   19 1
    17    7    8 ar
    18    7   13 1
    19    8    9 ar
    20    8   10 1
    21    9   41 1
    22   10   11 1
    23   10   12 1
    24   10   42 1
    25   11   43 1
    26   11   44 1
    27   11   45 1
    28   12   46 1
    29   12   47 1
    30   12   48 1
    31   13   14 1
    32   14   15 1
    33   14   49 1
    34   14   50 1
    35   15   16 1
    36   15   17 1
    37   15   18 1
    38   19   24 ar
    39   19   20 ar
    40   20   21 ar
    41   20   51 1
    42   21   22 ar
    43   22   23 ar
    44   22   52 1
    45   23   24 ar
    46   23   53 1
    47   24   25 1
    48   25   26 2
    49   25   54 1
    50   26   27 1
    51   26   55 1
    52   27   28 2
    53   27   32 1
    54   28   29 1
    55   28   56 1
    56   29   30 2
    57   29   31 1
    58   32   57 1
    59   32   58 1
    60   32   59 1
@<TRIPOS>MOLECULE
CHEMBL72988
   58    58     0     0     0
SMALL
USER_CHARGES

@<TRIPOS>ATOM
      1 C1          1.3522    2.7833    0.1361 C.3       1 <0>        -0.1439
      2 C2          0.9257    1.3214   -0.0117 C.3       1 <0>        -0.0889
      3 C3          1.5816    0.7276   -1.2316 C.2       1 <0>        -0.1391
      4 C4          2.7441    0.0926   -1.1020 C.2       1 <0>        -0.0570
      5 C5          3.4023   -0.4878   -2.2115 C.2       1 <0>        -0.1076
      6 C6          4.5926   -1.1189   -2.0360 C.2       1 <0>        -0.0796
      7 C7          5.2279   -1.7380   -3.1273 C.2       1 <0>        -0.1681
      8 C8          4.5711   -2.6925   -3.8471 C.2       1 <0>        -0.0069
      9 C9          5.1903   -3.2823   -4.9595 C.2       1 <0>        -0.0649
     10 C10         5.5379   -4.6019   -4.9273 C.2       1 <0>        -0.1488
     11 C11         5.1835   -5.3955   -3.8221 C.2       1 <0>         0.4437
     12 O1          4.4137   -4.8899   -2.8579 O.co2     1 <0>        -0.6870
     13 O2          5.6172   -6.6535   -3.7381 O.co2     1 <0>        -0.7157
     14 C12         5.4717   -2.4589   -6.1899 C.3       1 <0>        -0.0449
     15 C13         4.2557   -2.4541   -7.0801 C.2       1 <0>        -0.1131
     16 C14         3.3868   -1.4773   -6.9968 C.2       1 <0>        -0.1752
     17 C15         2.2312   -1.4125   -7.9619 C.3       1 <0>        -0.1173
     18 C16         4.0392   -3.5731   -8.0660 C.3       1 <0>        -0.1199
     19 C17         6.6343   -1.3468   -3.5015 C.3       1 <0>        -0.0981
     20 C18         2.7910   -0.4106   -3.5872 C.3       1 <0>        -0.0878
     21 C19         1.2667   -0.3353   -3.4507 C.3       1 <0>        -0.1156
     22 C20         0.9053    0.8600   -2.5694 C.3       1 <0>        -0.0730
     23 C21         3.3758   -0.0106    0.2623 C.3       1 <0>        -0.0666
     24 C22         3.5536   -1.4846    0.6319 C.3       1 <0>        -0.1605
     25 C23         4.7413    0.6794    0.2455 C.3       1 <0>        -0.1554
     26 H1          2.4355    2.8367    0.2438 H         1 <0>         0.0548
     27 H2          1.0471    3.3420   -0.7487 H         1 <0>         0.0521
     28 H3          0.8777    3.2128    1.0185 H         1 <0>         0.0503
     29 H4          1.2308    0.7628    0.8732 H         1 <0>         0.0729
     30 H5         -0.1576    1.2681   -0.1194 H         1 <0>         0.0620
     31 H6          5.0509   -1.1452   -1.0584 H         1 <0>         0.1313
     32 H7          3.5744   -2.9943   -3.5608 H         1 <0>         0.1283
     33 H8          6.0852   -5.0365   -5.7507 H         1 <0>         0.1069
     34 H9          5.7109   -1.4368   -5.8962 H         1 <0>         0.0773
     35 H10         6.3154   -2.8887   -6.7297 H         1 <0>         0.0741
     36 H11         3.4986   -0.7184   -6.2365 H         1 <0>         0.1102
     37 H12         2.6121   -1.3399   -8.9805 H         1 <0>         0.0605
     38 H13         1.6250   -2.3131   -7.8639 H         1 <0>         0.0606
     39 H14         1.6204   -0.5375   -7.7392 H         1 <0>         0.0547
     40 H15         3.4641   -4.3687   -7.5922 H         1 <0>         0.0702
     41 H16         3.4931   -3.1953   -8.9303 H         1 <0>         0.0617
     42 H17         5.0039   -3.9648   -8.3886 H         1 <0>         0.0595
     43 H18         7.1929   -1.0934   -2.6005 H         1 <0>         0.0517
     44 H19         7.1207   -2.1803   -4.0082 H         1 <0>         0.0590
     45 H20         6.6066   -0.4836   -4.1666 H         1 <0>         0.0540
     46 H21         3.1560    0.4798   -4.0993 H         1 <0>         0.0613
     47 H22         3.0629   -1.2988   -4.1577 H         1 <0>         0.0899
     48 H23         0.8173   -0.2127   -4.4361 H         1 <0>         0.0614
     49 H24         0.8957   -1.2505   -2.9893 H         1 <0>         0.0633
     50 H25        -0.1749    0.8945   -2.4282 H         1 <0>         0.0623
     51 H26         1.2372    1.7779   -3.0546 H         1 <0>         0.0656
     52 H27         2.7332    0.4734    0.9978 H         1 <0>         0.0803
     53 H28         4.2595   -1.9491   -0.0566 H         1 <0>         0.0764
     54 H29         3.9356   -1.5604    1.6499 H         1 <0>         0.0501
     55 H30         2.5924   -1.9943    0.5655 H         1 <0>         0.0548
     56 H31         4.6244    1.7081   -0.0954 H         1 <0>         0.0518
     57 H32         5.1627    0.6754    1.2508 H         1 <0>         0.0508
     58 H33         5.4095    0.1462   -0.4307 H         1 <0>         0.0712
@<TRIPOS>BOND
     1    1    2 1
     2    1   26 1
     3    1   27 1
     4    1   28 1
     5    2    3 1
     6    2   29 1
     7    2   30 1
     8    3   22 1
     9    3    4 2
    10    4    5 1
    11    4   23 1
    12    5    6 2
    13    5   20 1
    14    6    7 1
    15    6   31 1
    16    7    8 2
    17    7   19 1
    18    8    9 1
    19    8   32 1
    20    9   10 2
    21    9   14 1
    22   10   11 1
    23   10   33 1
    24   11   12 2
    25   11   13 1
    26   14   15 1
    27   14   34 1
    28   14   35 1
    29   15   16 2
    30   15   18 1
    31   16   17 1
    32   16   36 1
    33   17   37 1
    34   17   38 1
    35   17   39 1
    36   18   40 1
    37   18   41 1
    38   18   42 1
    39   19   43 1
    40   19   44 1
    41   19   45 1
    42   20   21 1
    43   20   46 1
    44   20   47 1
    45   21   22 1
    46   21   48 1
    47   21   49 1
    48   22   50 1
    49   22   51 1
    50   23   24 1
    51   23   25 1
    52   23   52 1
    53   24   53 1
    54   24   54 1
    55   24   55 1
    56   25   56 1
    57   25   57 1
    58   25   58 1
@<TRIPOS>MOLECULE
CHEMBL96829
   53    55     0     0     0
SMALL
USER_CHARGES

@<TRIPOS>ATOM
      1 C1          0.3525    1.0866   -0.1476 C.3       1 <0>        -0.1186
      2 C2          0.1806   -0.3896    0.1027 C.ar      1 <0>        -0.0718
      3 C3          0.1600   -1.2728   -0.9522 C.ar      1 <0>        -0.1205
      4 C4          0.0036   -2.6376   -0.7352 C.ar      1 <0>        -0.0621
      5 C5         -0.1297   -3.1197    0.5502 C.ar      1 <0>        -0.0676
      6 C6         -0.1143   -2.2409    1.6211 C.ar      1 <0>        -0.0999
      7 C7          0.0467   -0.8708    1.4088 C.ar      1 <0>        -0.0421
      8 C8          0.0695    0.0597    2.5490 C.2       1 <0>        -0.0791
      9 C9          1.1636    0.1381    3.3337 C.2       1 <0>        -0.0729
     10 C10         1.1361    0.9537    4.5478 C.2       1 <0>        -0.0195
     11 C11         2.2154    1.2117    5.3735 C.2       1 <0>        -0.1964
     12 C12         1.7520    2.0245    6.4065 C.2       1 <0>        -0.1887
     13 C13         0.4050    2.2363    6.1780 C.2       1 <0>        -0.0337
     14 O1          0.0584    1.5844    5.0471 O.3       1 <0>        -0.1354
     15 C14        -0.4613    3.0086    6.9879 C.2       1 <0>         0.5480
     16 O2         -0.0301    3.5606    7.9936 O.co2     1 <0>        -0.6660
     17 O3         -1.6427    3.1253    6.6836 O.co2     1 <0>        -0.6741
     18 C15        -1.1297    0.9248    2.8396 C.3       1 <0>        -0.1136
     19 C16        -0.2859   -4.5872    0.8533 C.3       1 <0>        -0.0215
     20 C17        -0.7106   -5.3525   -0.3982 C.3       1 <0>        -0.1109
     21 C18         0.2479   -4.9868   -1.5375 C.3       1 <0>        -0.1110
     22 C19        -0.0165   -3.5384   -1.9431 C.3       1 <0>        -0.0222
     23 C20        -1.3861   -3.4457   -2.6189 C.3       1 <0>        -0.1388
     24 C21         1.0629   -3.0853   -2.9283 C.3       1 <0>        -0.1414
     25 C22         1.0480   -5.1431    1.3560 C.3       1 <0>        -0.1393
     26 C23        -1.3480   -4.7676    1.9396 C.3       1 <0>        -0.1439
     27 H1          1.4139    1.3346   -0.1431 H         1 <0>         0.0693
     28 H2         -0.0765    1.3433   -1.1161 H         1 <0>         0.0626
     29 H3         -0.1555    1.6494    0.6355 H         1 <0>         0.0743
     30 H4          0.2663   -0.9017   -1.9609 H         1 <0>         0.1201
     31 H5         -0.2235   -2.6188    2.6269 H         1 <0>         0.1237
     32 H6          2.0601   -0.4013    3.0657 H         1 <0>         0.1358
     33 H7          3.2252    0.8517    5.2426 H         1 <0>         0.1420
     34 H8          2.3339    2.4142    7.2287 H         1 <0>         0.1483
     35 H9         -1.7538    0.4403    3.5905 H         1 <0>         0.0743
     36 H10        -0.7971    1.8932    3.2133 H         1 <0>         0.0813
     37 H11        -1.7057    1.0665    1.9251 H         1 <0>         0.0589
     38 H12        -0.6617   -6.4245   -0.2072 H         1 <0>         0.0655
     39 H13        -1.7284   -5.0738   -0.6711 H         1 <0>         0.0683
     40 H14         1.2784   -5.0906   -1.1979 H         1 <0>         0.0684
     41 H15         0.0735   -5.6442   -2.3893 H         1 <0>         0.0649
     42 H16        -1.5700   -2.4166   -2.9275 H         1 <0>         0.0555
     43 H17        -1.4045   -4.0961   -3.4934 H         1 <0>         0.0561
     44 H18        -2.1593   -3.7583   -1.9172 H         1 <0>         0.0583
     45 H19         2.0397   -3.1404   -2.4477 H         1 <0>         0.0560
     46 H20         1.0515   -3.7347   -3.8037 H         1 <0>         0.0560
     47 H21         0.8664   -2.0581   -3.2354 H         1 <0>         0.0584
     48 H22         1.3447   -4.6128    2.2609 H         1 <0>         0.0571
     49 H23         0.9391   -6.2050    1.5764 H         1 <0>         0.0566
     50 H24         1.8104   -5.0076    0.5889 H         1 <0>         0.0571
     51 H25        -2.2980   -4.3637    1.5895 H         1 <0>         0.0565
     52 H26        -1.4640   -5.8284    2.1618 H         1 <0>         0.0567
     53 H27        -1.0388   -4.2392    2.8414 H         1 <0>         0.0607
@<TRIPOS>BOND
     1    1    2 1
     2    1   27 1
     3    1   28 1
     4    1   29 1
     5    2    7 ar
     6    2    3 ar
     7    3    4 ar
     8    3   30 1
     9    4   22 1
    10    4    5 ar
    11    5    6 ar
    12    5   19 1
    13    6    7 ar
    14    6   31 1
    15    7    8 1
    16    8    9 2
    17    8   18 1
    18    9   10 1
    19    9   32 1
    20   10   14 1
    21   10   11 2
    22   11   12 1
    23   11   33 1
    24   12   13 2
    25   12   34 1
    26   13   14 1
    27   13   15 1
    28   15   16 2
    29   15   17 1
    30   18   35 1
    31   18   36 1
    32   18   37 1
    33   19   20 1
    34   19   25 1
    35   19   26 1
    36   20   21 1
    37   20   38 1
    38   20   39 1
    39   21   22 1
    40   21   40 1
    41   21   41 1
    42   22   23 1
    43   22   24 1
    44   23   42 1
    45   23   43 1
    46   23   44 1
    47   24   45 1
    48   24   46 1
    49   24   47 1
    50   25   48 1
    51   25   49 1
    52   25   50 1
    53   26   51 1
    54   26   52 1
    55   26   53 1
@<TRIPOS>MOLECULE
CHEMBL335762
   66    67     0     0     0
SMALL
USER_CHARGES

@<TRIPOS>ATOM
      1 C1         -3.9564    0.3921   -0.8245 C.3       1 <0>        -0.0945
      2 C2         -4.0529   -1.1006   -1.0078 C.2       1 <0>        -0.0843
      3 C3         -4.3457   -1.9089    0.0681 C.2       1 <0>        -0.1211
      4 C4         -4.3818   -1.3686    1.3619 C.2       1 <0>         0.4379
      5 O1         -4.0049   -0.1053    1.5681 O.co2     1 <0>        -0.6874
      6 O2         -4.7931   -2.1179    2.3865 O.co2     1 <0>        -0.7129
      7 C5         -3.8448   -1.6656   -2.2717 C.2       1 <0>        -0.0588
      8 C6         -3.5544   -0.8640   -3.3386 C.2       1 <0>        -0.1050
      9 C7         -3.3453   -1.4319   -4.6090 C.2       1 <0>        -0.0498
     10 C8         -3.0340   -0.7969   -5.8225 C.2       1 <0>        -0.1128
     11 C9         -2.8777   -1.5923   -6.9419 C.2       1 <0>        -0.1293
     12 C10        -3.0283   -2.9372   -6.8300 C.2       1 <0>        -0.2007
     13 S1         -3.3988   -3.1481   -5.0974 S.3       1 <0>         0.0509
     14 C11        -2.8792    0.6720   -5.8998 C.ar      1 <0>        -0.0370
     15 C12        -3.7755    1.4329   -6.6512 C.ar      1 <0>        -0.1004
     16 C13        -3.6261    2.8024   -6.7197 C.ar      1 <0>        -0.0723
     17 C14        -2.5900    3.4258   -6.0455 C.ar      1 <0>        -0.1064
     18 C15        -1.6961    2.6827   -5.2980 C.ar      1 <0>        -0.0772
     19 C16        -1.8360    1.3068   -5.2146 C.ar      1 <0>         0.1095
     20 O3         -0.9616    0.5761   -4.4755 O.3       1 <0>        -0.3082
     21 C17         0.0639   -0.1210   -5.1856 C.3       1 <0>         0.0614
     22 C18         0.9810   -0.8326   -4.1889 C.3       1 <0>        -0.1753
     23 C19         2.0790   -1.5790   -4.9492 C.3       1 <0>         0.2691
     24 F1          2.9827   -2.1347   -4.0372 F         1 <0>        -0.2013
     25 F2          1.5047   -2.5982   -5.7164 F         1 <0>        -0.2031
     26 C20        -0.5712    3.3704   -4.5681 C.3       1 <0>        -0.0192
     27 C21        -0.7405    4.8866   -4.6828 C.3       1 <0>        -0.1440
     28 C22        -0.5969    2.9645   -3.0932 C.3       1 <0>        -0.1473
     29 C23         0.7658    2.9582   -5.1873 C.3       1 <0>        -0.1496
     30 C24        -4.5943    3.6233   -7.5319 C.3       1 <0>        -0.0267
     31 C25        -5.6343    2.7007   -8.1708 C.3       1 <0>        -0.1451
     32 C26        -5.2978    4.6313   -6.6209 C.3       1 <0>        -0.1395
     33 C27        -3.8338    4.3713   -8.6288 C.3       1 <0>        -0.1371
     34 H1         -2.9604    0.6504   -0.4649 H         1 <0>         0.0690
     35 H2         -4.1383    0.8878   -1.7781 H         1 <0>         0.0335
     36 H3         -4.7008    0.7179   -0.0979 H         1 <0>         0.0904
     37 H4         -4.5476   -2.9588   -0.0845 H         1 <0>         0.1103
     38 H5         -3.9140   -2.7353   -2.4031 H         1 <0>         0.1113
     39 H6         -3.4853    0.2057   -3.2072 H         1 <0>         0.1428
     40 H7         -2.6383   -1.1482   -7.8969 H         1 <0>         0.1270
     41 H8         -2.9412   -3.6917   -7.5978 H         1 <0>         0.1808
     42 H9         -4.5848    0.9503   -7.1789 H         1 <0>         0.1286
     43 H10        -2.4795    4.4986   -6.1043 H         1 <0>         0.1287
     44 H11        -0.3899   -0.8560   -5.8505 H         1 <0>         0.0635
     45 H12         0.6465    0.5891   -5.7725 H         1 <0>         0.0631
     46 H13         1.4348   -0.0976   -3.5240 H         1 <0>         0.1058
     47 H14         0.3984   -1.5426   -3.6020 H         1 <0>         0.1017
     48 H15         2.6047   -0.8838   -5.6038 H         1 <0>         0.1096
     49 H16        -1.6930    5.1803   -4.2417 H         1 <0>         0.0589
     50 H17         0.0732    5.3840   -4.1549 H         1 <0>         0.0576
     51 H18        -0.7221    5.1758   -5.7336 H         1 <0>         0.0547
     52 H19        -0.4763    1.8843   -3.0114 H         1 <0>         0.0818
     53 H20         0.2167    3.4619   -2.5652 H         1 <0>         0.0519
     54 H21        -1.5494    3.2582   -2.6520 H         1 <0>         0.0551
     55 H22         0.7242    3.0972   -6.2676 H         1 <0>         0.0510
     56 H23         1.5637    3.5740   -4.7722 H         1 <0>         0.0582
     57 H24         0.9621    1.9097   -4.9632 H         1 <0>         0.0665
     58 H25        -6.1762    2.1679   -7.3894 H         1 <0>         0.0603
     59 H26        -6.3346    3.2945   -8.7583 H         1 <0>         0.0570
     60 H27        -5.1332    1.9826   -8.8198 H         1 <0>         0.0576
     61 H28        -4.5569    5.2885   -6.1658 H         1 <0>         0.0568
     62 H29        -5.9981    5.2250   -7.2084 H         1 <0>         0.0571
     63 H30        -5.8396    4.0984   -5.8395 H         1 <0>         0.0588
     64 H31        -3.3326    3.6532   -9.2778 H         1 <0>         0.0551
     65 H32        -4.5341    4.9650   -9.2163 H         1 <0>         0.0570
     66 H33        -3.0929    5.0285   -8.1736 H         1 <0>         0.0561
@<TRIPOS>BOND
     1    1    2 1
     2    1   34 1
     3    1   35 1
     4    1   36 1
     5    2    3 2
     6    2    7 1
     7    3    4 1
     8    3   37 1
     9    4    5 2
    10    4    6 1
    11    7    8 2
    12    7   38 1
    13    8    9 1
    14    8   39 1
    15    9   13 1
    16    9   10 2
    17   10   11 1
    18   10   14 1
    19   11   12 2
    20   11   40 1
    21   12   13 1
    22   12   41 1
    23   14   19 ar
    24   14   15 ar
    25   15   16 ar
    26   15   42 1
    27   16   17 ar
    28   16   30 1
    29   17   18 ar
    30   17   43 1
    31   18   19 ar
    32   18   26 1
    33   19   20 1
    34   20   21 1
    35   21   22 1
    36   21   44 1
    37   21   45 1
    38   22   23 1
    39   22   46 1
    40   22   47 1
    41   23   24 1
    42   23   25 1
    43   23   48 1
    44   26   27 1
    45   26   28 1
    46   26   29 1
    47   27   49 1
    48   27   50 1
    49   27   51 1
    50   28   52 1
    51   28   53 1
    52   28   54 1
    53   29   55 1
    54   29   56 1
    55   29   57 1
    56   30   31 1
    57   30   32 1
    58   30   33 1
    59   31   58 1
    60   31   59 1
    61   31   60 1
    62   32   61 1
    63   32   62 1
    64   32   63 1
    65   33   64 1
    66   33   65 1
    67   33   66 1
@<TRIPOS>MOLECULE
CHEMBL208503
   59    61     0     0     0
SMALL
USER_CHARGES

@<TRIPOS>ATOM
      1 C1         -0.7778    1.3562    0.0881 C.3       1 <0>        -0.0896
      2 C2         -0.2263   -0.0448    0.0255 C.2       1 <0>        -0.0939
      3 C3          0.1247   -0.6865    1.1664 C.2       1 <0>        -0.1771
      4 C4          0.1271    0.0097    2.3968 C.2       1 <0>         0.4991
      5 O1         -0.0733    1.2182    2.4172 O.co2     1 <0>        -0.6847
      6 O2          0.3295   -0.5956    3.4427 O.co2     1 <0>        -0.7051
      7 C5         -0.0700   -0.7119   -1.2660 C.2       1 <0>        -0.0831
      8 C6         -0.4159   -0.0797   -2.3901 C.2       1 <0>        -0.1887
      9 C7         -0.2548   -0.7673   -3.7214 C.3       1 <0>         0.1787
     10 H1          0.0585   -1.8001   -3.5694 H         1 <0>         0.0676
     11 C8         -1.5896   -0.7321   -4.4952 C.3       1 <0>        -0.1223
     12 C9         -1.1361   -0.4925   -5.9595 C.3       1 <0>        -0.1331
     13 C10         0.0836    0.4412   -5.7586 C.3       1 <0>         0.1147
     14 N1          0.7433   -0.0563   -4.5338 N.pl3     1 <0>        -0.6285
     15 C11         2.0883    0.1195   -4.2007 C.ar      1 <0>         0.2395
     16 C12         2.5886   -0.4037   -3.0148 C.ar      1 <0>        -0.1868
     17 C13         3.9166   -0.2220   -2.6953 C.ar      1 <0>        -0.0696
     18 C14         4.7613    0.4780   -3.5486 C.ar      1 <0>        -0.1221
     19 C15         4.2696    0.9936   -4.7274 C.ar      1 <0>        -0.0197
     20 C16         2.9329    0.8120   -5.0540 C.ar      1 <0>        -0.2001
     21 C17         5.1328    1.7477   -5.7048 C.3       1 <0>        -0.0218
     22 C18         6.4185    2.2228   -5.0312 C.3       1 <0>        -0.1106
     23 C19         7.0668    1.0252   -4.3268 C.3       1 <0>        -0.1091
     24 C20         6.1990    0.6431   -3.1295 C.3       1 <0>        -0.0146
     25 C21         6.2922    1.7409   -2.0679 C.3       1 <0>        -0.1403
     26 C22         6.7066   -0.6737   -2.5384 C.3       1 <0>        -0.1418
     27 C23         4.3604    2.9599   -6.2291 C.3       1 <0>        -0.1392
     28 C24         5.4868    0.8307   -6.8772 C.3       1 <0>        -0.1360
     29 H2          0.0455    2.0689    0.1371 H         1 <0>         0.0615
     30 H3         -1.3751    1.5517   -0.8024 H         1 <0>         0.0284
     31 H4         -1.4027    1.4614    0.9750 H         1 <0>         0.0878
     32 H5          0.4026   -1.7296    1.1356 H         1 <0>         0.0955
     33 H6          0.3252   -1.7160   -1.3109 H         1 <0>         0.1064
     34 H7         -0.8111    0.9244   -2.3452 H         1 <0>         0.1173
     35 H8         -2.1131   -1.6838   -4.4044 H         1 <0>         0.0803
     36 H9         -2.2161    0.0887   -4.1462 H         1 <0>         0.0792
     37 H10        -0.8384   -1.4274   -6.4343 H         1 <0>         0.0733
     38 H11        -1.9178    0.0042   -6.5343 H         1 <0>         0.0807
     39 H12         0.7613    0.3683   -6.6091 H         1 <0>         0.0667
     40 H13        -0.2457    1.4712   -5.6219 H         1 <0>         0.0581
     41 H14         1.9396   -0.9500   -2.3463 H         1 <0>         0.1248
     42 H15         4.3048   -0.6271   -1.7725 H         1 <0>         0.1191
     43 H16         2.5472    1.2169   -5.9779 H         1 <0>         0.1148
     44 H17         7.1011    2.6205   -5.7822 H         1 <0>         0.0625
     45 H18         6.1854    2.9967   -4.2999 H         1 <0>         0.0688
     46 H19         7.1311    0.1841   -5.0170 H         1 <0>         0.0659
     47 H20         8.0653    1.2971   -3.9846 H         1 <0>         0.0626
     48 H21         5.6894    1.4625   -1.2035 H         1 <0>         0.0576
     49 H22         7.3312    1.8633   -1.7621 H         1 <0>         0.0529
     50 H23         5.9223    2.6789   -2.4819 H         1 <0>         0.0561
     51 H24         6.6328   -1.4611   -3.2885 H         1 <0>         0.0536
     52 H25         7.7468   -0.5581   -2.2339 H         1 <0>         0.0534
     53 H26         6.1017   -0.9398   -1.6715 H         1 <0>         0.0593
     54 H27         4.0974    3.6114   -5.3957 H         1 <0>         0.0563
     55 H28         4.9819    3.5084   -6.9369 H         1 <0>         0.0538
     56 H29         3.4516    2.6236   -6.7281 H         1 <0>         0.0561
     57 H30         4.5722    0.5053   -7.3730 H         1 <0>         0.0535
     58 H31         6.1116    1.3729   -7.5869 H         1 <0>         0.0542
     59 H32         6.0287   -0.0396   -6.5070 H         1 <0>         0.0577
@<TRIPOS>BOND
     1    1    2 1
     2    1   29 1
     3    1   30 1
     4    1   31 1
     5    2    3 2
     6    2    7 1
     7    3    4 1
     8    3   32 1
     9    4    5 2
    10    4    6 1
    11    7    8 2
    12    7   33 1
    13    8    9 1
    14    8   34 1
    15    9   10 1
    16    9   14 1
    17    9   11 1
    18   11   12 1
    19   11   35 1
    20   11   36 1
    21   12   13 1
    22   12   37 1
    23   12   38 1
    24   13   14 1
    25   13   39 1
    26   13   40 1
    27   14   15 1
    28   15   20 ar
    29   15   16 ar
    30   16   17 ar
    31   16   41 1
    32   17   18 ar
    33   17   42 1
    34   18   24 1
    35   18   19 ar
    36   19   20 ar
    37   19   21 1
    38   20   43 1
    39   21   22 1
    40   21   27 1
    41   21   28 1
    42   22   23 1
    43   22   44 1
    44   22   45 1
    45   23   24 1
    46   23   46 1
    47   23   47 1
    48   24   25 1
    49   24   26 1
    50   25   48 1
    51   25   49 1
    52   25   50 1
    53   26   51 1
    54   26   52 1
    55   26   53 1
    56   27   54 1
    57   27   55 1
    58   27   56 1
    59   28   57 1
    60   28   58 1
    61   28   59 1
@<TRIPOS>MOLECULE
CHEMBL1221641
   53    55     0     0     0
SMALL
USER_CHARGES

@<TRIPOS>ATOM
      1 C1         -0.3972   -2.1249    0.2413 C.3       1 <0>        -0.1733
      2 C2         -0.1172   -1.7005   -1.2017 C.3       1 <0>         0.1278
      3 N1          0.6878   -0.4765   -1.2033 N.pl3     1 <0>        -0.5727
      4 C3          2.0831   -0.5577   -1.2034 C.ar      1 <0>         0.1798
      5 C4          2.8066   -0.1537   -0.0882 C.ar      1 <0>        -0.1092
      6 C5          4.1820   -0.2360   -0.1004 C.ar      1 <0>        -0.1077
      7 C6          4.8529   -0.7210   -1.2168 C.ar      1 <0>        -0.0726
      8 C7          4.1383   -1.1270   -2.3221 C.ar      1 <0>        -0.0535
      9 C8          2.7528   -1.0471   -2.3139 C.ar      1 <0>        -0.1253
     10 C9          4.8005   -1.6774   -3.5582 C.3       1 <0>        -0.0209
     11 C10         6.2828   -1.3105   -3.5826 C.3       1 <0>        -0.1112
     12 C11         6.9023   -1.7097   -2.2381 C.3       1 <0>        -0.1098
     13 C12         6.3575   -0.7748   -1.1603 C.3       1 <0>        -0.0208
     14 C13         6.9212    0.6306   -1.3794 C.3       1 <0>        -0.1396
     15 C14         6.7928   -1.2832    0.2156 C.3       1 <0>        -0.1409
     16 C15         4.6575   -3.2006   -3.5713 C.3       1 <0>        -0.1372
     17 C16         4.1167   -1.0967   -4.7977 C.3       1 <0>        -0.1420
     18 C17         0.0665    0.7605   -1.2047 C.ar      1 <0>         0.3820
     19 C18        -1.3138    0.8364   -1.0203 C.ar      1 <0>        -0.2437
     20 C19        -1.9250    2.0602   -1.0221 C.ar      1 <0>        -0.0093
     21 C20        -1.1322    3.2049   -1.2114 C.ar      1 <0>        -0.2296
     22 C21         0.2456    3.0535   -1.3902 C.ar      1 <0>         0.1677
     23 N2          0.7934    1.8569   -1.3760 N.ar      1 <0>        -0.5381
     24 C22        -1.7438    4.5433   -1.2218 C.2       1 <0>         0.5285
     25 O1         -2.9510    4.6655   -1.0648 O.co2     1 <0>        -0.6916
     26 O2         -1.0451    5.5339   -1.3873 O.co2     1 <0>        -0.6896
     27 H1          0.5461   -2.3098    0.7552 H         1 <0>         0.0566
     28 H2         -0.9411   -1.3317    0.7543 H         1 <0>         0.0621
     29 H3         -0.9962   -3.0356    0.2425 H         1 <0>         0.0641
     30 H4          0.4267   -2.4937   -1.7147 H         1 <0>         0.0743
     31 H5         -1.0605   -1.5157   -1.7156 H         1 <0>         0.0794
     32 H6          2.2934    0.2233    0.7841 H         1 <0>         0.1157
     33 H7          4.7442    0.0799    0.7659 H         1 <0>         0.1199
     34 H8          2.1924   -1.3651   -3.1807 H         1 <0>         0.1184
     35 H9          6.7806   -1.8475   -4.3900 H         1 <0>         0.0647
     36 H10         6.3928   -0.2366   -3.7329 H         1 <0>         0.0697
     37 H11         6.6334   -2.7392   -2.0013 H         1 <0>         0.0672
     38 H12         7.9869   -1.6160   -2.2914 H         1 <0>         0.0645
     39 H13         6.5500    1.2965   -0.6004 H         1 <0>         0.0569
     40 H14         8.0099    0.5957   -1.3392 H         1 <0>         0.0550
     41 H15         6.6053    1.0007   -2.3548 H         1 <0>         0.0589
     42 H16         6.3851   -2.2806    0.3800 H         1 <0>         0.0549
     43 H17         7.8811   -1.3236    0.2604 H         1 <0>         0.0553
     44 H18         6.4222   -0.6076    0.9865 H         1 <0>         0.0587
     45 H19         3.6004   -3.4663   -3.5741 H         1 <0>         0.0543
     46 H20         5.1356   -3.6027   -4.4646 H         1 <0>         0.0559
     47 H21         5.1348   -3.6180   -2.6847 H         1 <0>         0.0573
     48 H22         4.2075   -0.0106   -4.7875 H         1 <0>         0.0583
     49 H23         4.5932   -1.4927   -5.6945 H         1 <0>         0.0554
     50 H24         3.0624   -1.3733   -4.7941 H         1 <0>         0.0573
     51 H25        -1.8948   -0.0627   -0.8777 H         1 <0>         0.1234
     52 H26        -2.9925    2.1446   -0.8816 H         1 <0>         0.1346
     53 H27         0.8660    3.9252   -1.5367 H         1 <0>         0.1602
@<TRIPOS>BOND
     1    1    2 1
     2    1   27 1
     3    1   28 1
     4    1   29 1
     5    2    3 1
     6    2   30 1
     7    2   31 1
     8    3    4 1
     9    3   18 1
    10    4    9 ar
    11    4    5 ar
    12    5    6 ar
    13    5   32 1
    14    6    7 ar
    15    6   33 1
    16    7   13 1
    17    7    8 ar
    18    8    9 ar
    19    8   10 1
    20    9   34 1
    21   10   11 1
    22   10   16 1
    23   10   17 1
    24   11   12 1
    25   11   35 1
    26   11   36 1
    27   12   13 1
    28   12   37 1
    29   12   38 1
    30   13   14 1
    31   13   15 1
    32   14   39 1
    33   14   40 1
    34   14   41 1
    35   15   42 1
    36   15   43 1
    37   15   44 1
    38   16   45 1
    39   16   46 1
    40   16   47 1
    41   17   48 1
    42   17   49 1
    43   17   50 1
    44   18   23 ar
    45   18   19 ar
    46   19   20 ar
    47   19   51 1
    48   20   21 ar
    49   20   52 1
    50   21   22 ar
    51   21   24 1
    52   22   23 ar
    53   22   53 1
    54   24   25 2
    55   24   26 1
@<TRIPOS>MOLECULE
CHEMBL1221641__1
   54    56     0     0     0
SMALL
USER_CHARGES

@<TRIPOS>ATOM
      1 C1         -0.0038    1.5158    0.0183 C.3       1 <0>        -0.1816
      2 C2          0.0058   -0.0142    0.0114 C.3       1 <0>         0.1158
      3 N1         -1.3723   -0.5112    0.0124 N.pl3     1 <0>        -0.5953
      4 C3         -2.0326   -0.7427   -1.1975 C.ar      1 <0>         0.1770
      5 C4         -1.4265   -0.4027   -2.4006 C.ar      1 <0>        -0.1639
      6 C5         -2.0878   -0.6333   -3.5871 C.ar      1 <0>        -0.0742
      7 C6         -3.3547   -1.2047   -3.5928 C.ar      1 <0>        -0.0870
      8 C7         -3.9563   -1.5476   -2.4021 C.ar      1 <0>        -0.0129
      9 C8         -3.2935   -1.3183   -1.2045 C.ar      1 <0>        -0.1794
     10 C9         -5.3198   -2.1848   -2.3367 C.3       1 <0>        -0.0267
     11 C10        -6.0720   -1.9808   -3.6501 C.3       1 <0>        -0.1126
     12 C11        -5.1630   -2.4245   -4.8023 C.3       1 <0>        -0.1136
     13 C12        -4.0193   -1.4201   -4.9276 C.3       1 <0>        -0.0213
     14 C13        -4.5717   -0.0873   -5.4370 C.3       1 <0>        -0.1405
     15 C14        -2.9878   -1.9518   -5.9247 C.3       1 <0>        -0.1436
     16 C15        -5.1639   -3.6837   -2.0722 C.3       1 <0>        -0.1402
     17 C16        -6.1179   -1.5524   -1.1948 C.3       1 <0>        -0.1422
     18 C17        -2.0206   -0.7513    1.2117 C.ar      1 <0>         0.3742
     19 C18        -1.8412   -1.9747    1.8568 C.ar      1 <0>        -0.1227
     20 C19        -2.4831   -2.2092    3.0418 C.ar      1 <0>         0.0317
     21 C20        -3.3063   -1.1998    3.5692 C.ar      1 <0>        -0.1236
     22 C21        -3.4395    0.0018    2.8681 C.ar      1 <0>         0.1543
     23 N2         -2.7991    0.1875    1.7334 N.ar      1 <0>        -0.4569
     24 C22        -4.0180   -1.4052    4.8408 C.2       1 <0>         0.5207
     25 O1         -3.8953   -2.4609    5.4469 O.co2     1 <0>        -0.6431
     26 O2         -4.7325   -0.5203    5.2918 O.co2     1 <0>        -0.6522
     27 H1          1.0216    1.8855    0.0175 H         1 <0>         0.0815
     28 H2         -0.5220    1.8799   -0.8688 H         1 <0>         0.0681
     29 H3         -0.5177    1.8719    0.9111 H         1 <0>         0.0519
     30 H4          0.5198   -0.3703   -0.8814 H         1 <0>         0.1005
     31 H5          0.5240   -0.3783    0.8985 H         1 <0>         0.0872
     32 H6         -0.4417    0.0407   -2.4056 H         1 <0>         0.1293
     33 H7         -1.6172   -0.3671   -4.5220 H         1 <0>         0.1302
     34 H8         -3.7653   -1.5868   -0.2708 H         1 <0>         0.1166
     35 H9         -6.9821   -2.5806   -3.6488 H         1 <0>         0.0712
     36 H10        -6.3261   -0.9274   -3.7678 H         1 <0>         0.0701
     37 H11        -4.7601   -3.4151   -4.5916 H         1 <0>         0.0702
     38 H12        -5.7331   -2.4494   -5.7310 H         1 <0>         0.0704
     39 H13        -3.7552    0.6265   -5.5464 H         1 <0>         0.0554
     40 H14        -5.0535   -0.2391   -6.4030 H         1 <0>         0.0606
     41 H15        -5.3001    0.3001   -4.7247 H         1 <0>         0.0578
     42 H16        -2.5843   -2.8967   -5.5609 H         1 <0>         0.0572
     43 H17        -3.4650   -2.1089   -6.8921 H         1 <0>         0.0607
     44 H18        -2.1793   -1.2286   -6.0316 H         1 <0>         0.0581
     45 H19        -4.6448   -3.8336   -1.1256 H         1 <0>         0.0545
     46 H20        -6.1487   -4.1485   -2.0242 H         1 <0>         0.0633
     47 H21        -4.5872   -4.1369   -2.8785 H         1 <0>         0.0608
     48 H22        -6.2229   -0.4824   -1.3741 H         1 <0>         0.0563
     49 H23        -7.1054   -2.0110   -1.1443 H         1 <0>         0.0650
     50 H24        -5.5939   -1.7132   -0.2527 H         1 <0>         0.0519
     51 H25        -1.2017   -2.7301    1.4246 H         1 <0>         0.1781
     52 H26        -2.3602   -3.1488    3.5599 H         1 <0>         0.1817
     53 H27        -4.0691    0.7855    3.2627 H         1 <0>         0.2152
     54 H28        -2.9023    1.0305    1.2648 H         1 <0>         0.4358
@<TRIPOS>BOND
     1    1    2 1
     2    1   27 1
     3    1   28 1
     4    1   29 1
     5    2    3 1
     6    2   30 1
     7    2   31 1
     8    3    4 1
     9    3   18 1
    10    4    9 ar
    11    4    5 ar
    12    5    6 ar
    13    5   32 1
    14    6    7 ar
    15    6   33 1
    16    7   13 1
    17    7    8 ar
    18    8    9 ar
    19    8   10 1
    20    9   34 1
    21   10   11 1
    22   10   16 1
    23   10   17 1
    24   11   12 1
    25   11   35 1
    26   11   36 1
    27   12   13 1
    28   12   37 1
    29   12   38 1
    30   13   14 1
    31   13   15 1
    32   14   39 1
    33   14   40 1
    34   14   41 1
    35   15   42 1
    36   15   43 1
    37   15   44 1
    38   16   45 1
    39   16   46 1
    40   16   47 1
    41   17   48 1
    42   17   49 1
    43   17   50 1
    44   18   23 ar
    45   18   19 ar
    46   19   20 ar
    47   19   51 1
    48   20   21 ar
    49   20   52 1
    50   21   22 ar
    51   21   24 1
    52   22   23 ar
    53   22   53 1
    54   23   54 1
    55   24   25 2
    56   24   26 1
@<TRIPOS>MOLECULE
CHEMBL157333
   52    53     0     0     0
SMALL
USER_CHARGES

@<TRIPOS>ATOM
      1 C1         -2.1037   -1.1542    1.9953 C.3       1 <0>        -0.1273
      2 C2         -1.1219   -1.0773    0.8546 C.2       1 <0>        -0.1060
      3 C3         -1.4506   -0.3583   -0.2014 C.2       1 <0>        -0.0943
      4 C4         -0.5739   -0.2026   -1.4097 C.3       1 <0>        -0.0177
      5 C5          0.8620   -0.6116   -1.0749 C.3       1 <0>        -0.1090
      6 C6          0.8304   -1.9825   -0.3881 C.3       1 <0>        -0.1231
      7 C7          0.1766   -1.8184    0.9874 C.3       1 <0>        -0.0812
      8 C8         -1.1037   -1.0892   -2.5385 C.3       1 <0>        -0.1392
      9 C9         -0.5921    1.2581   -1.8648 C.3       1 <0>        -0.1397
     10 C10        -2.7449    0.3267   -0.1946 C.2       1 <0>        -0.1121
     11 C11        -3.8819   -0.3813   -0.0334 C.2       1 <0>        -0.1028
     12 C12        -5.1669    0.3151    0.1045 C.ar      1 <0>        -0.0527
     13 C13        -5.2197    1.7109    0.0639 C.ar      1 <0>        -0.1116
     14 C14        -6.4291    2.3589    0.1945 C.ar      1 <0>        -0.1296
     15 C15        -7.6016    1.6373    0.3667 C.ar      1 <0>        -0.1156
     16 C16        -7.5770    0.2608    0.4102 C.ar      1 <0>        -0.1199
     17 C17        -6.3627   -0.4214    0.2738 C.ar      1 <0>        -0.0244
     18 C18        -6.3294   -1.8856    0.3129 C.2       1 <0>        -0.1450
     19 C19        -7.4801   -2.5865    0.4755 C.2       1 <0>        -0.0758
     20 C20        -7.4481   -3.9932    0.5131 C.2       1 <0>        -0.0828
     21 C21        -8.6030   -4.6966    0.6763 C.2       1 <0>        -0.1327
     22 C22        -8.5567   -6.0901    0.8752 C.2       1 <0>         0.4404
     23 O1         -7.3829   -6.7034    1.0230 O.co2     1 <0>        -0.6900
     24 O2         -9.6867   -6.7953    0.9157 O.co2     1 <0>        -0.7140
     25 C23        -6.1360   -4.7210    0.3727 C.3       1 <0>        -0.1003
     26 H1         -1.6952   -1.7856    2.7843 H         1 <0>         0.0566
     27 H2         -2.2840   -0.1533    2.3876 H         1 <0>         0.0640
     28 H3         -3.0421   -1.5793    1.6390 H         1 <0>         0.0750
     29 H4          1.4480   -0.6749   -1.9918 H         1 <0>         0.0637
     30 H5          1.3052    0.1240   -0.4037 H         1 <0>         0.0628
     31 H6          0.2513   -2.6812   -0.9919 H         1 <0>         0.0690
     32 H7          1.8476   -2.3548   -0.2667 H         1 <0>         0.0634
     33 H8          0.8446   -1.2619    1.6448 H         1 <0>         0.0721
     34 H9         -0.0113   -2.8028    1.4158 H         1 <0>         0.0733
     35 H10        -2.1224   -0.7914   -2.7867 H         1 <0>         0.0570
     36 H11        -0.4683   -0.9775   -3.4170 H         1 <0>         0.0544
     37 H12        -1.0979   -2.1303   -2.2159 H         1 <0>         0.0581
     38 H13        -0.1440    1.8845   -1.0935 H         1 <0>         0.0536
     39 H14        -0.0237    1.3577   -2.7895 H         1 <0>         0.0542
     40 H15        -1.6217    1.5726   -2.0355 H         1 <0>         0.0582
     41 H16        -2.7892    1.3987   -0.3185 H         1 <0>         0.1167
     42 H17        -3.8469   -1.4603   -0.0058 H         1 <0>         0.1235
     43 H18        -4.3127    2.2819   -0.0694 H         1 <0>         0.1213
     44 H19        -6.4643    3.4379    0.1628 H         1 <0>         0.1183
     45 H20        -8.5416    2.1594    0.4679 H         1 <0>         0.1199
     46 H21        -8.4949   -0.2920    0.5454 H         1 <0>         0.1265
     47 H22        -5.3890   -2.4072    0.2123 H         1 <0>         0.1282
     48 H23        -8.4204   -2.0649    0.5761 H         1 <0>         0.1143
     49 H24        -9.5543   -4.1857    0.6532 H         1 <0>         0.1088
     50 H25        -5.7428   -4.9553    1.3620 H         1 <0>         0.0665
     51 H26        -6.2907   -5.6447   -0.1849 H         1 <0>         0.0952
     52 H27        -5.4254   -4.0894   -0.1605 H         1 <0>         0.0319
@<TRIPOS>BOND
     1    1    2 1
     2    1   26 1
     3    1   27 1
     4    1   28 1
     5    2    7 1
     6    2    3 2
     7    3    4 1
     8    3   10 1
     9    4    5 1
    10    4    8 1
    11    4    9 1
    12    5    6 1
    13    5   29 1
    14    5   30 1
    15    6    7 1
    16    6   31 1
    17    6   32 1
    18    7   33 1
    19    7   34 1
    20    8   35 1
    21    8   36 1
    22    8   37 1
    23    9   38 1
    24    9   39 1
    25    9   40 1
    26   10   11 2
    27   10   41 1
    28   11   12 1
    29   11   42 1
    30   12   17 ar
    31   12   13 ar
    32   13   14 ar
    33   13   43 1
    34   14   15 ar
    35   14   44 1
    36   15   16 ar
    37   15   45 1
    38   16   17 ar
    39   16   46 1
    40   17   18 1
    41   18   19 2
    42   18   47 1
    43   19   20 1
    44   19   48 1
    45   20   21 2
    46   20   25 1
    47   21   22 1
    48   21   49 1
    49   22   23 2
    50   22   24 1
    51   25   50 1
    52   25   51 1
    53   25   52 1
@<TRIPOS>MOLECULE
CHEMBL312233
   61    63     0     0     0
SMALL
USER_CHARGES

@<TRIPOS>ATOM
      1 C1         -0.7778    1.3562    0.0881 C.3       1 <0>        -0.0905
      2 C2         -0.2263   -0.0448    0.0255 C.2       1 <0>        -0.0918
      3 C3          0.1247   -0.6865    1.1664 C.2       1 <0>        -0.1830
      4 C4          0.1271    0.0097    2.3968 C.2       1 <0>         0.5001
      5 O1         -0.0733    1.2182    2.4172 O.co2     1 <0>        -0.6862
      6 O2          0.3295   -0.5956    3.4427 O.co2     1 <0>        -0.7064
      7 C5         -0.0700   -0.7119   -1.2660 C.2       1 <0>        -0.0925
      8 C6         -0.4159   -0.0797   -2.3901 C.2       1 <0>        -0.1697
      9 C7         -0.2548   -0.7673   -3.7214 C.3       1 <0>        -0.0447
     10 H1          0.1428   -1.7731   -3.5861 H         1 <0>         0.0789
     11 C8         -1.6007   -0.8132   -4.4741 C.3       1 <0>        -0.0913
     12 C9         -1.2930   -0.5781   -5.9383 C.2       1 <0>        -0.1151
     13 C10        -2.1628   -0.5331   -6.9168 C.2       1 <0>        -0.1997
     14 C11         0.2103   -0.4036   -6.0619 C.3       1 <0>        -0.0881
     15 C12         0.6650    0.0609   -4.6542 C.3       1 <0>        -0.0418
     16 H2          0.4889    1.1287   -4.5239 H         1 <0>         0.0857
     17 C13         2.1140   -0.2777   -4.4165 C.ar      1 <0>        -0.0660
     18 C14         2.5648   -1.5706   -4.6089 C.ar      1 <0>        -0.1186
     19 C15         3.8920   -1.8734   -4.3864 C.ar      1 <0>        -0.1172
     20 C16         4.7807   -0.8894   -3.9719 C.ar      1 <0>        -0.0676
     21 C17         4.3329    0.3989   -3.7852 C.ar      1 <0>        -0.0566
     22 C18         2.9964    0.7022   -4.0118 C.ar      1 <0>        -0.1084
     23 C19         5.2428    1.5187   -3.3528 C.3       1 <0>        -0.0229
     24 C20         6.5301    0.9620   -2.7482 C.3       1 <0>        -0.1131
     25 C21         7.1202   -0.0621   -3.7247 C.3       1 <0>        -0.1099
     26 C22         6.2138   -1.2913   -3.7400 C.3       1 <0>        -0.0226
     27 C23         6.3236   -2.0159   -2.3969 C.3       1 <0>        -0.1407
     28 C24         6.6608   -2.2340   -4.8590 C.3       1 <0>        -0.1399
     29 C25         4.5254    2.3772   -2.3092 C.3       1 <0>        -0.1443
     30 C26         5.5886    2.3847   -4.5658 C.3       1 <0>        -0.1369
     31 H3          0.0455    2.0689    0.1371 H         1 <0>         0.0612
     32 H4         -1.3751    1.5517   -0.8024 H         1 <0>         0.0293
     33 H5         -1.4027    1.4614    0.9750 H         1 <0>         0.0873
     34 H6          0.4026   -1.7296    1.1356 H         1 <0>         0.0942
     35 H7          0.3252   -1.7160   -1.3109 H         1 <0>         0.1040
     36 H8         -0.8111    0.9244   -2.3452 H         1 <0>         0.1155
     37 H9         -2.0674   -1.7895   -4.3436 H         1 <0>         0.0741
     38 H10        -2.2624   -0.0309   -4.1022 H         1 <0>         0.0786
     39 H11        -3.2141   -0.6716   -6.7117 H         1 <0>         0.1000
     40 H12        -1.8287   -0.3575   -7.9287 H         1 <0>         0.0989
     41 H13         0.6836   -1.3512   -6.3188 H         1 <0>         0.0803
     42 H14         0.4454    0.3551   -6.8083 H         1 <0>         0.0702
     43 H15         1.8801   -2.3408   -4.9318 H         1 <0>         0.1171
     44 H16         4.2430   -2.8838   -4.5353 H         1 <0>         0.1179
     45 H17         2.6442    1.7126   -3.8653 H         1 <0>         0.1198
     46 H18         7.2422    1.7721   -2.5912 H         1 <0>         0.0658
     47 H19         6.3093    0.4773   -1.7971 H         1 <0>         0.0707
     48 H20         7.1697    0.3699   -4.7242 H         1 <0>         0.0668
     49 H21         8.1201   -0.3474   -3.3977 H         1 <0>         0.0648
     50 H22         5.6927   -2.9046   -2.4109 H         1 <0>         0.0556
     51 H23         7.3596   -2.3083   -2.2255 H         1 <0>         0.0561
     52 H24         5.9968   -1.3509   -1.5975 H         1 <0>         0.0608
     53 H25         6.5749   -1.7249   -5.8190 H         1 <0>         0.0545
     54 H26         7.6977   -2.5271   -4.6946 H         1 <0>         0.0557
     55 H27         6.0283   -3.1217   -4.8606 H         1 <0>         0.0576
     56 H28         4.2683    1.7618   -1.4471 H         1 <0>         0.0610
     57 H29         5.1809    3.1890   -1.9937 H         1 <0>         0.0568
     58 H30         3.6159    2.7925   -2.7434 H         1 <0>         0.0588
     59 H31         4.6737    2.7999   -4.9885 H         1 <0>         0.0549
     60 H32         6.2471    3.1965   -4.2568 H         1 <0>         0.0566
     61 H33         6.0913    1.7747   -5.3163 H         1 <0>         0.0558
@<TRIPOS>BOND
     1    1    2 1
     2    1   31 1
     3    1   32 1
     4    1   33 1
     5    2    3 2
     6    2    7 1
     7    3    4 1
     8    3   34 1
     9    4    5 2
    10    4    6 1
    11    7    8 2
    12    7   35 1
    13    8    9 1
    14    8   36 1
    15    9   10 1
    16    9   15 1
    17    9   11 1
    18   11   12 1
    19   11   37 1
    20   11   38 1
    21   12   13 2
    22   12   14 1
    23   13   39 1
    24   13   40 1
    25   14   15 1
    26   14   41 1
    27   14   42 1
    28   15   16 1
    29   15   17 1
    30   17   22 ar
    31   17   18 ar
    32   18   19 ar
    33   18   43 1
    34   19   20 ar
    35   19   44 1
    36   20   26 1
    37   20   21 ar
    38   21   22 ar
    39   21   23 1
    40   22   45 1
    41   23   24 1
    42   23   29 1
    43   23   30 1
    44   24   25 1
    45   24   46 1
    46   24   47 1
    47   25   26 1
    48   25   48 1
    49   25   49 1
    50   26   27 1
    51   26   28 1
    52   27   50 1
    53   27   51 1
    54   27   52 1
    55   28   53 1
    56   28   54 1
    57   28   55 1
    58   29   56 1
    59   29   57 1
    60   29   58 1
    61   30   59 1
    62   30   60 1
    63   30   61 1
@<TRIPOS>MOLECULE
CHEMBL63048
   50    52     0     0     0
SMALL
USER_CHARGES

@<TRIPOS>ATOM
      1 C1         -0.0187    1.5258    0.0104 C.3       1 <0>        -0.1412
      2 C2          0.0021   -0.0041    0.0020 C.3       1 <0>        -0.0227
      3 C3          0.6935   -0.4914   -1.2697 C.3       1 <0>        -0.1106
      4 C4          0.8989   -2.0067   -1.1582 C.3       1 <0>        -0.1123
      5 C5          1.9621   -2.2714   -0.0941 C.3       1 <0>        -0.0224
      6 C6          1.6287   -1.5413    1.1806 C.ar      1 <0>        -0.0610
      7 C7          0.7315   -0.4976    1.2240 C.ar      1 <0>        -0.0680
      8 C8          0.4736    0.1376    2.4317 C.ar      1 <0>        -0.1163
      9 C9          1.1061   -0.2707    3.5879 C.ar      1 <0>        -0.1128
     10 C10         2.0037   -1.3209    3.5450 C.ar      1 <0>        -0.0729
     11 C11         2.2628   -1.9521    2.3458 C.ar      1 <0>        -0.1136
     12 C12         2.6974   -1.7746    4.8036 C.3       1 <0>        -0.0079
     13 C13         1.8710   -2.8402    5.4765 C.2       1 <0>        -0.1691
     14 C14         0.8651   -2.6336    6.4309 C.2       1 <0>        -0.1975
     15 C15         0.3815   -3.8827    6.7683 C.2       1 <0>         0.0428
     16 O1          1.0658   -4.7973    6.0493 O.3       1 <0>        -0.1656
     17 C16         1.9574   -4.1736    5.2679 C.2       1 <0>        -0.0471
     18 C17        -0.6459   -4.1544    7.7002 C.2       1 <0>        -0.0854
     19 C18        -1.0261   -5.4387    7.9382 C.2       1 <0>        -0.1113
     20 C19        -2.0496   -5.7094    8.8665 C.2       1 <0>         0.4422
     21 O2         -2.6457   -4.7076    9.5120 O.co2     1 <0>        -0.7016
     22 O3         -2.4220   -6.9675    9.0997 O.co2     1 <0>        -0.7048
     23 C20         3.3212   -1.7931   -0.6088 C.3       1 <0>        -0.1381
     24 C21         2.0307   -3.7736    0.1880 C.3       1 <0>        -0.1430
     25 C22        -1.4352   -0.5282    0.0264 C.3       1 <0>        -0.1402
     26 H1          1.0039    1.9031    0.0027 H         1 <0>         0.0552
     27 H2         -0.5459    1.8868   -0.8726 H         1 <0>         0.0563
     28 H3         -0.5289    1.8773    0.9072 H         1 <0>         0.0588
     29 H4          0.0697   -0.2681   -2.1352 H         1 <0>         0.0653
     30 H5          1.6591    0.0032   -1.3751 H         1 <0>         0.0677
     31 H6         -0.0373   -2.4838   -0.8684 H         1 <0>         0.0693
     32 H7          1.2323   -2.4035   -2.1171 H         1 <0>         0.0656
     33 H8         -0.2276    0.9584    2.4660 H         1 <0>         0.1195
     34 H9          0.9003    0.2283    4.5234 H         1 <0>         0.1196
     35 H10         2.9646   -2.7724    2.3130 H         1 <0>         0.1189
     36 H11         3.6777   -2.1796    4.5524 H         1 <0>         0.0772
     37 H12         2.8166   -0.9270    5.4785 H         1 <0>         0.0808
     38 H13         0.5337   -1.6844    6.8252 H         1 <0>         0.1483
     39 H14         2.6376   -4.6581    4.5830 H         1 <0>         0.1948
     40 H15        -1.1291   -3.3425    8.2234 H         1 <0>         0.1564
     41 H16        -0.5429   -6.2506    7.4151 H         1 <0>         0.1127
     42 H17         3.2741   -0.7248   -0.8203 H         1 <0>         0.0572
     43 H18         4.0829   -1.9804    0.1481 H         1 <0>         0.0555
     44 H19         3.5749   -2.3332   -1.5210 H         1 <0>         0.0565
     45 H20         2.2908   -4.3038   -0.7282 H         1 <0>         0.0567
     46 H21         2.7886   -3.9666    0.9472 H         1 <0>         0.0587
     47 H22         1.0614   -4.1207    0.5459 H         1 <0>         0.0577
     48 H23        -1.9692   -0.1652   -0.8518 H         1 <0>         0.0565
     49 H24        -1.4246   -1.6181    0.0205 H         1 <0>         0.0586
     50 H25        -1.9356   -0.1745    0.9278 H         1 <0>         0.0566
@<TRIPOS>BOND
     1    1    2 1
     2    1   26 1
     3    1   27 1
     4    1   28 1
     5    2    7 1
     6    2    3 1
     7    2   25 1
     8    3    4 1
     9    3   29 1
    10    3   30 1
    11    4    5 1
    12    4   31 1
    13    4   32 1
    14    5    6 1
    15    5   23 1
    16    5   24 1
    17    6   11 ar
    18    6    7 ar
    19    7    8 ar
    20    8    9 ar
    21    8   33 1
    22    9   10 ar
    23    9   34 1
    24   10   11 ar
    25   10   12 1
    26   11   35 1
    27   12   13 1
    28   12   36 1
    29   12   37 1
    30   13   17 2
    31   13   14 1
    32   14   15 2
    33   14   38 1
    34   15   16 1
    35   15   18 1
    36   16   17 1
    37   17   39 1
    38   18   19 2
    39   18   40 1
    40   19   20 1
    41   19   41 1
    42   20   21 2
    43   20   22 1
    44   23   42 1
    45   23   43 1
    46   23   44 1
    47   24   45 1
    48   24   46 1
    49   24   47 1
    50   25   48 1
    51   25   49 1
    52   25   50 1
@<TRIPOS>MOLECULE
CHEMBL395563
   77    82     0     0     0
SMALL
USER_CHARGES

@<TRIPOS>ATOM
      1 C1          0.0450    1.3740   -0.0207 C.3       1 <0>        -0.1402
      2 C2          0.0572   -0.1554    0.0182 C.3       1 <0>        -0.0204
      3 C3         -1.3802   -0.6712    0.0025 C.3       1 <0>        -0.1115
      4 C4         -2.0387   -0.3047    1.3377 C.3       1 <0>        -0.1115
      5 C5         -1.4058   -1.1546    2.4371 C.3       1 <0>        -0.0236
      6 C6          0.0972   -1.0669    2.3784 C.ar      1 <0>        -0.0275
      7 C7          0.7708   -0.6153    1.2635 C.ar      1 <0>        -0.0772
      8 C8          2.1580   -0.5809    1.2583 C.ar      1 <0>        -0.0560
      9 C9          2.8818   -0.9855    2.3769 C.ar      1 <0>        -0.1329
     10 C10         2.1907   -1.4125    3.5181 C.ar      1 <0>         0.1973
     11 C11         0.8099   -1.4604    3.5059 C.ar      1 <0>        -0.1411
     12 N1          2.9021   -1.7544    4.6726 N.pl3     1 <0>        -0.6182
     13 C12         3.7292   -0.7877    5.2690 C.ar      1 <0>         0.1697
     14 C13         3.4824   -0.3937    6.5732 C.ar      1 <0>        -0.1329
     15 C14         4.2558    0.5899    7.1637 C.ar      1 <0>        -0.0637
     16 C15         5.2831    1.1917    6.4473 C.ar      1 <0>        -0.1420
     17 C16         5.5520    0.7927    5.1473 C.ar      1 <0>        -0.0397
     18 C17         4.7906   -0.2196    4.5521 C.ar      1 <0>         0.0975
     19 N2          5.1325   -0.6577    3.3144 N.2       1 <0>        -0.5079
     20 C18         4.3531   -0.9872    2.3476 C.2       1 <0>         0.3252
     21 C19         4.9960   -1.4083    1.0846 C.ar      1 <0>        -0.0944
     22 C20         6.2901   -0.9768    0.7819 C.ar      1 <0>        -0.0805
     23 C21         6.8888   -1.3682   -0.3939 C.ar      1 <0>        -0.0973
     24 C22         6.2021   -2.1981   -1.2854 C.ar      1 <0>        -0.1055
     25 C23         4.9073   -2.6301   -0.9818 C.ar      1 <0>        -0.0943
     26 C24         4.3115   -2.2423    0.1968 C.ar      1 <0>        -0.1011
     27 C25         6.8432   -2.6176   -2.5460 C.2       1 <0>         0.5166
     28 O1          7.9756   -2.2393   -2.8116 O.co2     1 <0>        -0.6834
     29 O2          6.2424   -3.3435   -3.3256 O.co2     1 <0>        -0.6841
     30 S1          6.2466    2.4645    7.1931 S.3       1 <0>        -0.0064
     31 C26         7.4949    1.5911    8.0782 C.ar      1 <0>        -0.1326
     32 C27         8.3776    2.2819    8.8990 C.ar      1 <0>        -0.0598
     33 C28         9.3551    1.5964    9.5925 C.ar      1 <0>        -0.1354
     34 C29         9.4560    0.2183    9.4700 C.ar      1 <0>         0.1221
     35 C30         8.5754   -0.4726    8.6505 C.ar      1 <0>        -0.1890
     36 C31         7.5935    0.2103    7.9604 C.ar      1 <0>        -0.0786
     37 O3         10.4192   -0.4560   10.1536 O.3       1 <0>        -0.3175
     38 C32        10.4654   -1.8737    9.9808 C.3       1 <0>         0.0261
     39 C33         2.7866   -3.0958    5.2499 C.3       1 <0>         0.1104
     40 C34        -1.8870   -0.6547    3.8008 C.3       1 <0>        -0.1410
     41 C35        -1.8331   -2.6125    2.2563 C.3       1 <0>        -0.1394
     42 C36         0.7964   -0.6857   -1.2120 C.3       1 <0>        -0.1474
     43 H1          1.0698    1.7454   -0.0288 H         1 <0>         0.0571
     44 H2         -0.4705    1.7105   -0.9203 H         1 <0>         0.0596
     45 H3         -0.4729    1.7558    0.8591 H         1 <0>         0.0563
     46 H4         -1.9283   -0.2064   -0.8171 H         1 <0>         0.0688
     47 H5         -1.3806   -1.7541   -0.1223 H         1 <0>         0.0704
     48 H6         -1.8745    0.7517    1.5502 H         1 <0>         0.0695
     49 H7         -3.1085   -0.5074    1.2872 H         1 <0>         0.0673
     50 H8          2.6812   -0.2374    0.3782 H         1 <0>         0.1370
     51 H9          0.2790   -1.8063    4.3805 H         1 <0>         0.1268
     52 H10         2.6826   -0.8566    7.1323 H         1 <0>         0.1298
     53 H11         4.0606    0.8905    8.1825 H         1 <0>         0.1341
     54 H12         6.3502    1.2637    4.5928 H         1 <0>         0.1406
     55 H13         6.8204   -0.3357    1.4705 H         1 <0>         0.1244
     56 H14         7.8888   -1.0340   -0.6281 H         1 <0>         0.1305
     57 H15         4.3764   -3.2708   -1.6702 H         1 <0>         0.1304
     58 H16         3.3132   -2.5795    0.4334 H         1 <0>         0.1178
     59 H17         8.2995    3.3549    8.9942 H         1 <0>         0.1351
     60 H18        10.0417    2.1333   10.2303 H         1 <0>         0.1355
     61 H19         8.6553   -1.5454    8.5553 H         1 <0>         0.1297
     62 H20         6.9052   -0.3283    7.3259 H         1 <0>         0.1261
     63 H21         9.5192   -2.3098   10.3012 H         1 <0>         0.0550
     64 H22        10.6352   -2.1063    8.9295 H         1 <0>         0.0569
     65 H23        11.2770   -2.2865   10.5799 H         1 <0>         0.1005
     66 H24         3.5455   -3.7456    4.8139 H         1 <0>         0.0466
     67 H25         2.9317   -3.0408    6.3288 H         1 <0>         0.0652
     68 H26         1.7967   -3.4993    5.0365 H         1 <0>         0.0675
     69 H27        -2.9726   -0.7362    3.8552 H         1 <0>         0.0585
     70 H28        -1.4373   -1.2590    4.5886 H         1 <0>         0.0571
     71 H29        -1.5939    0.3872    3.9299 H         1 <0>         0.0565
     72 H30        -1.5015   -2.9701    1.2814 H         1 <0>         0.0615
     73 H31        -1.3833   -3.2228    3.0394 H         1 <0>         0.0548
     74 H32        -2.9190   -2.6833    2.3191 H         1 <0>         0.0589
     75 H33         1.8203   -0.3121   -1.2096 H         1 <0>         0.0635
     76 H34         0.8071   -1.7753   -1.1877 H         1 <0>         0.0601
     77 H35         0.2882   -0.3473   -2.1150 H         1 <0>         0.0601
@<TRIPOS>BOND
     1    1    2 1
     2    1   43 1
     3    1   44 1
     4    1   45 1
     5    2    7 1
     6    2    3 1
     7    2   42 1
     8    3    4 1
     9    3   46 1
    10    3   47 1
    11    4    5 1
    12    4   48 1
    13    4   49 1
    14    5    6 1
    15    5   40 1
    16    5   41 1
    17    6   11 ar
    18    6    7 ar
    19    7    8 ar
    20    8    9 ar
    21    8   50 1
    22    9   20 1
    23    9   10 ar
    24   10   11 ar
    25   10   12 1
    26   11   51 1
    27   12   13 1
    28   12   39 1
    29   13   18 ar
    30   13   14 ar
    31   14   15 ar
    32   14   52 1
    33   15   16 ar
    34   15   53 1
    35   16   17 ar
    36   16   30 1
    37   17   18 ar
    38   17   54 1
    39   18   19 1
    40   19   20 2
    41   20   21 1
    42   21   26 ar
    43   21   22 ar
    44   22   23 ar
    45   22   55 1
    46   23   24 ar
    47   23   56 1
    48   24   25 ar
    49   24   27 1
    50   25   26 ar
    51   25   57 1
    52   26   58 1
    53   27   28 2
    54   27   29 1
    55   30   31 1
    56   31   36 ar
    57   31   32 ar
    58   32   33 ar
    59   32   59 1
    60   33   34 ar
    61   33   60 1
    62   34   35 ar
    63   34   37 1
    64   35   36 ar
    65   35   61 1
    66   36   62 1
    67   37   38 1
    68   38   63 1
    69   38   64 1
    70   38   65 1
    71   39   66 1
    72   39   67 1
    73   39   68 1
    74   40   69 1
    75   40   70 1
    76   40   71 1
    77   41   72 1
    78   41   73 1
    79   41   74 1
    80   42   75 1
    81   42   76 1
    82   42   77 1
@<TRIPOS>MOLECULE
CHEMBL62537
   57    60     0     0     0
SMALL
USER_CHARGES

@<TRIPOS>ATOM
      1 C1         -0.0187    1.5258    0.0104 C.3       1 <0>        -0.1434
      2 C2          0.0021   -0.0041    0.0020 C.3       1 <0>        -0.0224
      3 C3          0.6935   -0.4914   -1.2697 C.3       1 <0>        -0.1126
      4 C4          0.8989   -2.0067   -1.1582 C.3       1 <0>        -0.1101
      5 C5          1.9621   -2.2714   -0.0941 C.3       1 <0>        -0.0224
      6 C6          1.6287   -1.5413    1.1806 C.ar      1 <0>        -0.0608
      7 C7          0.7315   -0.4976    1.2240 C.ar      1 <0>        -0.0656
      8 C8          0.4736    0.1376    2.4317 C.ar      1 <0>        -0.1162
      9 C9          1.1061   -0.2707    3.5879 C.ar      1 <0>        -0.1045
     10 C10         2.0037   -1.3209    3.5450 C.ar      1 <0>        -0.0687
     11 C11         2.2628   -1.9521    2.3458 C.ar      1 <0>        -0.1150
     12 C12         2.6974   -1.7746    4.8036 C.3       1 <0>         0.0172
     13 C13         1.6555   -2.2091    5.8348 C.3       1 <0>        -0.1082
     14 C14         2.3381   -2.4917    7.1760 C.3       1 <0>        -0.1121
     15 C15         2.8011   -1.1610    7.7847 C.3       1 <0>        -0.0329
     16 C16         3.5280   -0.3829    6.7276 C.2       1 <0>        -0.2433
     17 C17         3.5121   -0.6210    5.3830 C.2       1 <0>        -0.1127
     18 C18         4.2653    0.2299    4.5907 C.2       1 <0>        -0.1420
     19 C19         4.9594    1.2399    5.2431 C.2       1 <0>        -0.1227
     20 S1          4.5178    0.9443    6.9452 S.3       1 <0>         0.1726
     21 C20         5.7964    2.2406    4.7003 C.2       1 <0>        -0.0606
     22 C21         6.3912    3.1487    5.5206 C.2       1 <0>        -0.1230
     23 C22         7.2248    4.1453    4.9800 C.2       1 <0>         0.4445
     24 O1          7.4317    4.1996    3.6644 O.co2     1 <0>        -0.7026
     25 O2          7.8074    5.0349    5.7835 O.co2     1 <0>        -0.7070
     26 C23         3.3212   -1.7931   -0.6088 C.3       1 <0>        -0.1409
     27 C24         2.0307   -3.7736    0.1880 C.3       1 <0>        -0.1409
     28 C25        -1.4352   -0.5282    0.0264 C.3       1 <0>        -0.1374
     29 H1          1.0039    1.9031    0.0027 H         1 <0>         0.0589
     30 H2         -0.5459    1.8868   -0.8726 H         1 <0>         0.0563
     31 H3         -0.5289    1.8773    0.9072 H         1 <0>         0.0582
     32 H4          0.0697   -0.2681   -2.1352 H         1 <0>         0.0652
     33 H5          1.6591    0.0032   -1.3751 H         1 <0>         0.0702
     34 H6         -0.0373   -2.4838   -0.8684 H         1 <0>         0.0671
     35 H7          1.2323   -2.4035   -2.1171 H         1 <0>         0.0652
     36 H8         -0.2276    0.9584    2.4660 H         1 <0>         0.1187
     37 H9          0.9003    0.2283    4.5234 H         1 <0>         0.1167
     38 H10         2.9646   -2.7724    2.3130 H         1 <0>         0.1189
     39 H11         3.3588   -2.6104    4.5752 H         1 <0>         0.0819
     40 H12         0.9197   -1.4151    5.9630 H         1 <0>         0.0669
     41 H13         1.1550   -3.1122    5.4856 H         1 <0>         0.0650
     42 H14         1.6319   -2.9760    7.8505 H         1 <0>         0.0695
     43 H15         3.1995   -3.1407    7.0180 H         1 <0>         0.0664
     44 H16         1.9355   -0.5939    8.1271 H         1 <0>         0.0769
     45 H17         3.4707   -1.3548    8.6227 H         1 <0>         0.0760
     46 H18         4.3105    0.1132    3.5180 H         1 <0>         0.1328
     47 H19         5.9640    2.2846    3.6343 H         1 <0>         0.1452
     48 H20         6.2236    3.1047    6.5866 H         1 <0>         0.1074
     49 H21         3.2741   -0.7248   -0.8203 H         1 <0>         0.0597
     50 H22         4.0829   -1.9804    0.1481 H         1 <0>         0.0571
     51 H23         3.5749   -2.3332   -1.5210 H         1 <0>         0.0565
     52 H24         2.2908   -4.3038   -0.7282 H         1 <0>         0.0562
     53 H25         2.7886   -3.9666    0.9472 H         1 <0>         0.0587
     54 H26         1.0614   -4.1207    0.5459 H         1 <0>         0.0547
     55 H27        -1.9692   -0.1652   -0.8518 H         1 <0>         0.0561
     56 H28        -1.4246   -1.6181    0.0205 H         1 <0>         0.0567
     57 H29        -1.9356   -0.1745    0.9278 H         1 <0>         0.0547
@<TRIPOS>BOND
     1    1    2 1
     2    1   29 1
     3    1   30 1
     4    1   31 1
     5    2    7 1
     6    2    3 1
     7    2   28 1
     8    3    4 1
     9    3   32 1
    10    3   33 1
    11    4    5 1
    12    4   34 1
    13    4   35 1
    14    5    6 1
    15    5   26 1
    16    5   27 1
    17    6   11 ar
    18    6    7 ar
    19    7    8 ar
    20    8    9 ar
    21    8   36 1
    22    9   10 ar
    23    9   37 1
    24   10   11 ar
    25   10   12 1
    26   11   38 1
    27   12   17 1
    28   12   13 1
    29   12   39 1
    30   13   14 1
    31   13   40 1
    32   13   41 1
    33   14   15 1
    34   14   42 1
    35   14   43 1
    36   15   16 1
    37   15   44 1
    38   15   45 1
    39   16   20 1
    40   16   17 2
    41   17   18 1
    42   18   19 2
    43   18   46 1
    44   19   20 1
    45   19   21 1
    46   21   22 2
    47   21   47 1
    48   22   23 1
    49   22   48 1
    50   23   24 2
    51   23   25 1
    52   26   49 1
    53   26   50 1
    54   26   51 1
    55   27   52 1
    56   27   53 1
    57   27   54 1
    58   28   55 1
    59   28   56 1
    60   28   57 1
@<TRIPOS>MOLECULE
CHEMBL62537__1
   57    60     0     0     0
SMALL
USER_CHARGES

@<TRIPOS>ATOM
      1 C1         -0.0187    1.5258    0.0104 C.3       1 <0>        -0.1408
      2 C2          0.0021   -0.0041    0.0020 C.3       1 <0>        -0.0228
      3 C3          0.6935   -0.4914   -1.2697 C.3       1 <0>        -0.1101
      4 C4          0.8989   -2.0067   -1.1582 C.3       1 <0>        -0.1126
      5 C5          1.9621   -2.2714   -0.0941 C.3       1 <0>        -0.0220
      6 C6          1.6287   -1.5413    1.1806 C.ar      1 <0>        -0.0611
      7 C7          0.7315   -0.4976    1.2240 C.ar      1 <0>        -0.0653
      8 C8          0.4736    0.1376    2.4317 C.ar      1 <0>        -0.1164
      9 C9          1.1061   -0.2707    3.5879 C.ar      1 <0>        -0.1043
     10 C10         2.0037   -1.3209    3.5450 C.ar      1 <0>        -0.0689
     11 C11         2.2628   -1.9521    2.3458 C.ar      1 <0>        -0.1148
     12 C12         2.6974   -1.7746    4.8036 C.3       1 <0>         0.0173
     13 C13         3.5000   -0.6144    5.3930 C.3       1 <0>        -0.1082
     14 C14         4.0530   -1.0091    6.7653 C.3       1 <0>        -0.1121
     15 C15         2.8896   -1.0845    7.7635 C.3       1 <0>        -0.0329
     16 C16         1.7849   -1.8899    7.1451 C.2       1 <0>        -0.2433
     17 C17         1.6578   -2.2241    5.8271 C.2       1 <0>        -0.1127
     18 C18         0.5508   -2.9813    5.4803 C.2       1 <0>        -0.1419
     19 C19        -0.3187   -3.3231    6.5072 C.2       1 <0>        -0.1228
     20 S1          0.4640   -2.5603    7.9161 S.3       1 <0>         0.1726
     21 C20        -1.5123   -4.0773    6.4506 C.2       1 <0>        -0.0607
     22 C21        -2.2289   -4.3030    7.5850 C.2       1 <0>        -0.1230
     23 C22        -3.4176   -5.0542    7.5286 C.2       1 <0>         0.4446
     24 O1         -3.8414   -5.5444    6.3640 O.co2     1 <0>        -0.7026
     25 O2         -4.1195   -5.2753    8.6398 O.co2     1 <0>        -0.7070
     26 C23         2.0307   -3.7736    0.1880 C.3       1 <0>        -0.1435
     27 C24         3.3212   -1.7931   -0.6088 C.3       1 <0>        -0.1376
     28 C25        -1.4352   -0.5282    0.0264 C.3       1 <0>        -0.1408
     29 H1          1.0039    1.9031    0.0027 H         1 <0>         0.0546
     30 H2         -0.5459    1.8868   -0.8726 H         1 <0>         0.0562
     31 H3         -0.5289    1.8773    0.9072 H         1 <0>         0.0586
     32 H4          0.0697   -0.2681   -2.1352 H         1 <0>         0.0652
     33 H5          1.6591    0.0032   -1.3751 H         1 <0>         0.0670
     34 H6         -0.0373   -2.4838   -0.8684 H         1 <0>         0.0702
     35 H7          1.2323   -2.4035   -2.1171 H         1 <0>         0.0653
     36 H8         -0.2276    0.9584    2.4660 H         1 <0>         0.1187
     37 H9          0.9008    0.2287    4.5232 H         1 <0>         0.1166
     38 H10         2.9646   -2.7724    2.3130 H         1 <0>         0.1189
     39 H11         3.3659   -2.6042    4.5735 H         1 <0>         0.0819
     40 H12         4.3268   -0.3701    4.7260 H         1 <0>         0.0650
     41 H13         2.8530    0.2563    5.5000 H         1 <0>         0.0669
     42 H14         4.5396   -1.9821    6.6971 H         1 <0>         0.0663
     43 H15         4.7724   -0.2610    7.0984 H         1 <0>         0.0695
     44 H16         3.2252   -1.5671    8.6815 H         1 <0>         0.0760
     45 H17         2.5307   -0.0793    7.9845 H         1 <0>         0.0768
     46 H18         0.3727   -3.2903    4.4609 H         1 <0>         0.1328
     47 H19        -1.8557   -4.4746    5.5069 H         1 <0>         0.1452
     48 H20        -1.8854   -3.9058    8.5287 H         1 <0>         0.1074
     49 H21         2.2908   -4.3038   -0.7282 H         1 <0>         0.0564
     50 H22         2.7886   -3.9666    0.9472 H         1 <0>         0.0584
     51 H23         1.0614   -4.1207    0.5459 H         1 <0>         0.0587
     52 H24         3.2741   -0.7248   -0.8203 H         1 <0>         0.0568
     53 H25         4.0829   -1.9804    0.1481 H         1 <0>         0.0549
     54 H26         3.5749   -2.3332   -1.5210 H         1 <0>         0.0562
     55 H27        -1.9692   -0.1652   -0.8518 H         1 <0>         0.0564
     56 H28        -1.4246   -1.6181    0.0205 H         1 <0>         0.0596
     57 H29        -1.9356   -0.1745    0.9278 H         1 <0>         0.0571
@<TRIPOS>BOND
     1    1    2 1
     2    1   29 1
     3    1   30 1
     4    1   31 1
     5    2    7 1
     6    2    3 1
     7    2   28 1
     8    3    4 1
     9    3   32 1
    10    3   33 1
    11    4    5 1
    12    4   34 1
    13    4   35 1
    14    5    6 1
    15    5   26 1
    16    5   27 1
    17    6   11 ar
    18    6    7 ar
    19    7    8 ar
    20    8    9 ar
    21    8   36 1
    22    9   10 ar
    23    9   37 1
    24   10   11 ar
    25   10   12 1
    26   11   38 1
    27   12   17 1
    28   12   13 1
    29   12   39 1
    30   13   14 1
    31   13   40 1
    32   13   41 1
    33   14   15 1
    34   14   42 1
    35   14   43 1
    36   15   16 1
    37   15   44 1
    38   15   45 1
    39   16   20 1
    40   16   17 2
    41   17   18 1
    42   18   19 2
    43   18   46 1
    44   19   20 1
    45   19   21 1
    46   21   22 2
    47   21   47 1
    48   22   23 1
    49   22   48 1
    50   23   24 2
    51   23   25 1
    52   26   49 1
    53   26   50 1
    54   26   51 1
    55   27   52 1
    56   27   53 1
    57   27   54 1
    58   28   55 1
    59   28   56 1
    60   28   57 1
@<TRIPOS>MOLECULE
CHEMBL62880
   57    60     0     0     0
SMALL
USER_CHARGES

@<TRIPOS>ATOM
      1 C1         -0.0187    1.5258    0.0104 C.3       1 <0>        -0.1432
      2 C2          0.0021   -0.0041    0.0020 C.3       1 <0>        -0.0223
      3 C3          0.6935   -0.4914   -1.2697 C.3       1 <0>        -0.1123
      4 C4          0.8989   -2.0067   -1.1582 C.3       1 <0>        -0.1103
      5 C5          1.9621   -2.2714   -0.0941 C.3       1 <0>        -0.0223
      6 C6          1.6287   -1.5413    1.1806 C.ar      1 <0>        -0.0616
      7 C7          0.7315   -0.4976    1.2240 C.ar      1 <0>        -0.0663
      8 C8          0.4736    0.1376    2.4317 C.ar      1 <0>        -0.1168
      9 C9          1.1061   -0.2707    3.5879 C.ar      1 <0>        -0.1043
     10 C10         2.0037   -1.3209    3.5450 C.ar      1 <0>        -0.0668
     11 C11         2.2628   -1.9521    2.3458 C.ar      1 <0>        -0.1143
     12 C12         2.6974   -1.7746    4.8036 C.3       1 <0>         0.0255
     13 C13         1.6538   -2.2015    5.8435 C.3       1 <0>        -0.1123
     14 C14         2.3386   -2.4078    7.1972 C.3       1 <0>        -0.1136
     15 C15         2.7733   -1.0514    7.7645 C.3       1 <0>        -0.0353
     16 C16         3.5388   -0.3097    6.6942 C.2       1 <0>        -0.0250
     17 C17         3.5026   -0.6372    5.3777 C.2       1 <0>        -0.1646
     18 C18         4.3290    0.2587    4.6990 C.2       1 <0>        -0.1824
     19 C19         4.8437    1.1152    5.6556 C.2       1 <0>         0.0355
     20 O1          4.3438    0.7442    6.8551 O.3       1 <0>        -0.1599
     21 C20         5.7350    2.1868    5.4205 C.2       1 <0>        -0.0807
     22 C21         6.1649    2.9541    6.4583 C.2       1 <0>        -0.1155
     23 C22         7.0527    4.0215    6.2241 C.2       1 <0>         0.4430
     24 O2          7.4718    4.2802    4.9858 O.co2     1 <0>        -0.7022
     25 O3          7.4738    4.7732    7.2407 O.co2     1 <0>        -0.7058
     26 C23         2.0307   -3.7736    0.1880 C.3       1 <0>        -0.1412
     27 C24         3.3212   -1.7931   -0.6088 C.3       1 <0>        -0.1405
     28 C25        -1.4352   -0.5282    0.0264 C.3       1 <0>        -0.1377
     29 H1          1.0039    1.9031    0.0027 H         1 <0>         0.0582
     30 H2         -0.5459    1.8868   -0.8726 H         1 <0>         0.0562
     31 H3         -0.5289    1.8773    0.9072 H         1 <0>         0.0585
     32 H4          0.0697   -0.2681   -2.1352 H         1 <0>         0.0651
     33 H5          1.6591    0.0032   -1.3751 H         1 <0>         0.0697
     34 H6         -0.0373   -2.4838   -0.8684 H         1 <0>         0.0673
     35 H7          1.2323   -2.4035   -2.1171 H         1 <0>         0.0651
     36 H8         -0.2276    0.9584    2.4660 H         1 <0>         0.1187
     37 H9          0.9008    0.2287    4.5232 H         1 <0>         0.1172
     38 H10         2.9646   -2.7724    2.3130 H         1 <0>         0.1193
     39 H11         3.3559   -2.6133    4.5779 H         1 <0>         0.0837
     40 H12         0.8936   -1.4257    5.9352 H         1 <0>         0.0691
     41 H13         1.1857   -3.1336    5.5271 H         1 <0>         0.0691
     42 H14         1.6422   -2.8838    7.8876 H         1 <0>         0.0761
     43 H15         3.2138   -3.0446    7.0681 H         1 <0>         0.0694
     44 H16         1.8940   -0.4754    8.0527 H         1 <0>         0.0833
     45 H17         3.4130   -1.2050    8.6335 H         1 <0>         0.0825
     46 H18         4.5279    0.2791    3.6376 H         1 <0>         0.1466
     47 H19         6.0746    2.3964    4.4169 H         1 <0>         0.1560
     48 H20         5.8252    2.7444    7.4618 H         1 <0>         0.1117
     49 H21         2.2908   -4.3038   -0.7282 H         1 <0>         0.0561
     50 H22         2.7886   -3.9666    0.9472 H         1 <0>         0.0590
     51 H23         1.0614   -4.1207    0.5459 H         1 <0>         0.0550
     52 H24         3.2741   -0.7248   -0.8203 H         1 <0>         0.0591
     53 H25         4.0829   -1.9804    0.1481 H         1 <0>         0.0571
     54 H26         3.5749   -2.3332   -1.5210 H         1 <0>         0.0563
     55 H27        -1.9692   -0.1652   -0.8518 H         1 <0>         0.0560
     56 H28        -1.4246   -1.6181    0.0205 H         1 <0>         0.0569
     57 H29        -1.9356   -0.1745    0.9278 H         1 <0>         0.0550
@<TRIPOS>BOND
     1    1    2 1
     2    1   29 1
     3    1   30 1
     4    1   31 1
     5    2    7 1
     6    2    3 1
     7    2   28 1
     8    3    4 1
     9    3   32 1
    10    3   33 1
    11    4    5 1
    12    4   34 1
    13    4   35 1
    14    5    6 1
    15    5   26 1
    16    5   27 1
    17    6   11 ar
    18    6    7 ar
    19    7    8 ar
    20    8    9 ar
    21    8   36 1
    22    9   10 ar
    23    9   37 1
    24   10   11 ar
    25   10   12 1
    26   11   38 1
    27   12   17 1
    28   12   13 1
    29   12   39 1
    30   13   14 1
    31   13   40 1
    32   13   41 1
    33   14   15 1
    34   14   42 1
    35   14   43 1
    36   15   16 1
    37   15   44 1
    38   15   45 1
    39   16   20 1
    40   16   17 2
    41   17   18 1
    42   18   19 2
    43   18   46 1
    44   19   20 1
    45   19   21 1
    46   21   22 2
    47   21   47 1
    48   22   23 1
    49   22   48 1
    50   23   24 2
    51   23   25 1
    52   26   49 1
    53   26   50 1
    54   26   51 1
    55   27   52 1
    56   27   53 1
    57   27   54 1
    58   28   55 1
    59   28   56 1
    60   28   57 1
@<TRIPOS>MOLECULE
CHEMBL62880__1
   57    60     0     0     0
SMALL
USER_CHARGES

@<TRIPOS>ATOM
      1 C1         -0.0187    1.5258    0.0104 C.3       1 <0>        -0.1404
      2 C2          0.0021   -0.0041    0.0020 C.3       1 <0>        -0.0226
      3 C3         -1.4328   -0.5271   -0.0149 C.3       1 <0>        -0.1104
      4 C4         -2.0769   -0.2161    1.3413 C.3       1 <0>        -0.1123
      5 C5         -1.4248   -1.1043    2.3990 C.3       1 <0>        -0.0220
      6 C6          0.0761   -0.9993    2.3263 C.ar      1 <0>        -0.0618
      7 C7          0.7315   -0.4976    1.2240 C.ar      1 <0>        -0.0660
      8 C8          2.1187   -0.4341    1.2187 C.ar      1 <0>        -0.1169
      9 C9          2.8446   -0.8662    2.3097 C.ar      1 <0>        -0.1041
     10 C10         2.1866   -1.3661    3.4176 C.ar      1 <0>        -0.0669
     11 C11         0.8084   -1.4318    3.4241 C.ar      1 <0>        -0.1141
     12 C12         2.9717   -1.8382    4.6142 C.3       1 <0>         0.0255
     13 C13         3.9280   -2.9614    4.1942 C.3       1 <0>        -0.1123
     14 C14         4.9022   -3.2552    5.3382 C.3       1 <0>        -0.1136
     15 C15         5.8810   -2.0852    5.4920 C.3       1 <0>        -0.0353
     16 C16         5.0855   -0.8028    5.5568 C.2       1 <0>        -0.0251
     17 C17         3.7899   -0.6990    5.1661 C.2       1 <0>        -0.1645
     18 C18         3.3928    0.6220    5.3740 C.2       1 <0>        -0.1823
     19 C19         4.4921    1.2820    5.8934 C.2       1 <0>         0.0355
     20 O1          5.5028    0.3901    5.9896 O.3       1 <0>        -0.1598
     21 C20         4.5484    2.6466    6.2576 C.2       1 <0>        -0.0807
     22 C21         5.6997    3.1698    6.7589 C.2       1 <0>        -0.1156
     23 C22         5.7558    4.5291    7.1217 C.2       1 <0>         0.4430
     24 O2          4.6811    5.3031    6.9740 O.co2     1 <0>        -0.7022
     25 O3          6.8836    5.0416    7.6129 O.co2     1 <0>        -0.7058
     26 C23        -1.8409   -2.5577    2.1636 C.3       1 <0>        -0.1378
     27 C24        -1.8947   -0.6643    3.7869 C.3       1 <0>        -0.1431
     28 C25         0.7308   -0.4918   -1.2518 C.3       1 <0>        -0.1412
     29 H1          1.0039    1.9031    0.0027 H         1 <0>         0.0570
     30 H2         -0.5459    1.8868   -0.8726 H         1 <0>         0.0563
     31 H3         -0.5289    1.8773    0.9072 H         1 <0>         0.0590
     32 H4         -1.9937   -0.0346   -0.8092 H         1 <0>         0.0650
     33 H5         -1.4289   -1.6043   -0.1811 H         1 <0>         0.0673
     34 H6         -1.9161    0.8323    1.5924 H         1 <0>         0.0696
     35 H7         -3.1461   -0.4235    1.2962 H         1 <0>         0.0652
     36 H8          2.6337   -0.0437    0.3534 H         1 <0>         0.1187
     37 H9          3.9233   -0.8135    2.2981 H         1 <0>         0.1172
     38 H10         0.2950   -1.8229    4.2900 H         1 <0>         0.1193
     39 H11         2.2884   -2.2044    5.3804 H         1 <0>         0.0837
     40 H12         3.3550   -3.8599    3.9650 H         1 <0>         0.0690
     41 H13         4.4871   -2.6517    3.3112 H         1 <0>         0.0692
     42 H14         4.3445   -3.3862    6.2655 H         1 <0>         0.0694
     43 H15         5.4577   -4.1666    5.1171 H         1 <0>         0.0761
     44 H16         6.4568   -2.2066    6.4095 H         1 <0>         0.0825
     45 H17         6.5553   -2.0559    4.6361 H         1 <0>         0.0832
     46 H18         2.4205    1.0455    5.1698 H         1 <0>         0.1466
     47 H19         3.6774    3.2738    6.1379 H         1 <0>         0.1560
     48 H20         6.5706    2.5425    6.8787 H         1 <0>         0.1117
     49 H21        -1.5164   -2.8725    1.1718 H         1 <0>         0.0570
     50 H22        -1.3773   -3.1949    2.9168 H         1 <0>         0.0552
     51 H23        -2.9254   -2.6413    2.2347 H         1 <0>         0.0561
     52 H24        -2.9789   -0.7573    3.8498 H         1 <0>         0.0562
     53 H25        -1.4313   -1.2961    4.5447 H         1 <0>         0.0588
     54 H26        -1.6088    0.3740    3.9551 H         1 <0>         0.0581
     55 H27         1.7527   -0.1125   -1.2487 H         1 <0>         0.0588
     56 H28         0.7477   -1.5816   -1.2614 H         1 <0>         0.0549
     57 H29         0.2111   -0.1286   -2.1384 H         1 <0>         0.0561
@<TRIPOS>BOND
     1    1    2 1
     2    1   29 1
     3    1   30 1
     4    1   31 1
     5    2    7 1
     6    2    3 1
     7    2   28 1
     8    3    4 1
     9    3   32 1
    10    3   33 1
    11    4    5 1
    12    4   34 1
    13    4   35 1
    14    5    6 1
    15    5   26 1
    16    5   27 1
    17    6   11 ar
    18    6    7 ar
    19    7    8 ar
    20    8    9 ar
    21    8   36 1
    22    9   10 ar
    23    9   37 1
    24   10   11 ar
    25   10   12 1
    26   11   38 1
    27   12   17 1
    28   12   13 1
    29   12   39 1
    30   13   14 1
    31   13   40 1
    32   13   41 1
    33   14   15 1
    34   14   42 1
    35   14   43 1
    36   15   16 1
    37   15   44 1
    38   15   45 1
    39   16   20 1
    40   16   17 2
    41   17   18 1
    42   18   19 2
    43   18   46 1
    44   19   20 1
    45   19   21 1
    46   21   22 2
    47   21   47 1
    48   22   23 1
    49   22   48 1
    50   23   24 2
    51   23   25 1
    52   26   49 1
    53   26   50 1
    54   26   51 1
    55   27   52 1
    56   27   53 1
    57   27   54 1
    58   28   55 1
    59   28   56 1
    60   28   57 1
@<TRIPOS>MOLECULE
CHEMBL113864
   58    61     0     0     0
SMALL
USER_CHARGES

@<TRIPOS>ATOM
      1 C1         -0.0187    1.5258    0.0104 C.3       1 <0>        -0.1427
      2 C2          0.0021   -0.0041    0.0020 C.3       1 <0>        -0.0224
      3 C3          0.6935   -0.4914   -1.2697 C.3       1 <0>        -0.1124
      4 C4          0.8989   -2.0067   -1.1582 C.3       1 <0>        -0.1100
      5 C5          1.9621   -2.2714   -0.0941 C.3       1 <0>        -0.0211
      6 C6          1.6287   -1.5413    1.1806 C.ar      1 <0>        -0.0594
      7 C7          0.7315   -0.4976    1.2240 C.ar      1 <0>        -0.0588
      8 C8          0.4736    0.1376    2.4317 C.ar      1 <0>        -0.1156
      9 C9          1.1061   -0.2707    3.5879 C.ar      1 <0>        -0.0973
     10 C10         2.0037   -1.3209    3.5450 C.ar      1 <0>        -0.0450
     11 C11         2.2628   -1.9521    2.3458 C.ar      1 <0>        -0.0921
     12 C12         2.6974   -1.7746    4.8036 C.3       1 <0>         0.1045
     13 S1          1.6159   -1.4827    6.2336 S.3       1 <0>        -0.2093
     14 C13         2.5405   -2.1907    7.6239 C.3       1 <0>        -0.1030
     15 C14         2.7388   -3.6873    7.4113 C.3       1 <0>        -0.1177
     16 C15         3.7655   -3.9487    6.3151 C.3       1 <0>        -0.1030
     17 S2          3.0576   -3.5516    4.6933 S.3       1 <0>        -0.2099
     18 C16         3.9837   -1.0084    4.9754 C.ar      1 <0>        -0.1114
     19 C17         5.1550   -1.4968    4.4236 C.ar      1 <0>        -0.1166
     20 C18         6.3360   -0.8012    4.5771 C.ar      1 <0>        -0.0877
     21 C19         6.3478    0.3995    5.2915 C.ar      1 <0>        -0.1201
     22 C20         5.1612    0.8867    5.8455 C.ar      1 <0>        -0.0877
     23 C21         3.9867    0.1830    5.6794 C.ar      1 <0>        -0.1168
     24 C22         7.6073    1.1491    5.4605 C.2       1 <0>         0.5181
     25 O1          8.6442    0.7198    4.9748 O.co2     1 <0>        -0.6858
     26 O2          7.6143    2.1997    6.0863 O.co2     1 <0>        -0.6858
     27 C23         3.3212   -1.7931   -0.6088 C.3       1 <0>        -0.1414
     28 C24         2.0307   -3.7736    0.1880 C.3       1 <0>        -0.1426
     29 C25        -1.4352   -0.5282    0.0264 C.3       1 <0>        -0.1380
     30 H1          1.0039    1.9031    0.0027 H         1 <0>         0.0580
     31 H2         -0.5459    1.8868   -0.8726 H         1 <0>         0.0566
     32 H3         -0.5289    1.8773    0.9072 H         1 <0>         0.0588
     33 H4          0.0697   -0.2681   -2.1352 H         1 <0>         0.0656
     34 H5          1.6591    0.0032   -1.3751 H         1 <0>         0.0700
     35 H6         -0.0373   -2.4838   -0.8684 H         1 <0>         0.0680
     36 H7          1.2323   -2.4035   -2.1171 H         1 <0>         0.0661
     37 H8         -0.2276    0.9584    2.4660 H         1 <0>         0.1235
     38 H9          0.9003    0.2283    4.5234 H         1 <0>         0.1287
     39 H10         2.9646   -2.7724    2.3130 H         1 <0>         0.1316
     40 H11         3.5129   -1.7038    7.6969 H         1 <0>         0.0905
     41 H12         1.9858   -2.0271    8.5479 H         1 <0>         0.1120
     42 H13         3.0846   -4.1387    8.3413 H         1 <0>         0.0825
     43 H14         1.7880   -4.1380    7.1268 H         1 <0>         0.0875
     44 H15         4.6448   -3.3280    6.4877 H         1 <0>         0.0904
     45 H16         4.0567   -4.9989    6.3353 H         1 <0>         0.1120
     46 H17         5.1444   -2.4251    3.8716 H         1 <0>         0.1272
     47 H18         7.2495   -1.1839    4.1465 H         1 <0>         0.1277
     48 H19         5.1630    1.8141    6.3989 H         1 <0>         0.1278
     49 H20         3.0679    0.5606    6.1033 H         1 <0>         0.1278
     50 H21         3.2741   -0.7248   -0.8203 H         1 <0>         0.0585
     51 H22         4.0829   -1.9804    0.1481 H         1 <0>         0.0590
     52 H23         3.5749   -2.3332   -1.5210 H         1 <0>         0.0574
     53 H24         2.2908   -4.3038   -0.7282 H         1 <0>         0.0568
     54 H25         2.7886   -3.9666    0.9472 H         1 <0>         0.0613
     55 H26         1.0614   -4.1207    0.5459 H         1 <0>         0.0557
     56 H27        -1.9692   -0.1652   -0.8518 H         1 <0>         0.0564
     57 H28        -1.4246   -1.6181    0.0205 H         1 <0>         0.0580
     58 H29        -1.9356   -0.1745    0.9278 H         1 <0>         0.0557
@<TRIPOS>BOND
     1    1    2 1
     2    1   30 1
     3    1   31 1
     4    1   32 1
     5    2    7 1
     6    2    3 1
     7    2   29 1
     8    3    4 1
     9    3   33 1
    10    3   34 1
    11    4    5 1
    12    4   35 1
    13    4   36 1
    14    5    6 1
    15    5   27 1
    16    5   28 1
    17    6   11 ar
    18    6    7 ar
    19    7    8 ar
    20    8    9 ar
    21    8   37 1
    22    9   10 ar
    23    9   38 1
    24   10   11 ar
    25   10   12 1
    26   11   39 1
    27   12   17 1
    28   12   13 1
    29   12   18 1
    30   13   14 1
    31   14   15 1
    32   14   40 1
    33   14   41 1
    34   15   16 1
    35   15   42 1
    36   15   43 1
    37   16   17 1
    38   16   44 1
    39   16   45 1
    40   18   23 ar
    41   18   19 ar
    42   19   20 ar
    43   19   46 1
    44   20   21 ar
    45   20   47 1
    46   21   22 ar
    47   21   24 1
    48   22   23 ar
    49   22   48 1
    50   23   49 1
    51   24   25 2
    52   24   26 1
    53   27   50 1
    54   27   51 1
    55   27   52 1
    56   28   53 1
    57   28   54 1
    58   28   55 1
    59   29   56 1
    60   29   57 1
    61   29   58 1
@<TRIPOS>MOLECULE
CHEMBL113865
   58    61     0     0     0
SMALL
USER_CHARGES

@<TRIPOS>ATOM
      1 C1         -0.0187    1.5258    0.0104 C.3       1 <0>        -0.1425
      2 C2          0.0021   -0.0041    0.0020 C.3       1 <0>        -0.0228
      3 C3          0.6935   -0.4914   -1.2697 C.3       1 <0>        -0.1123
      4 C4          0.8989   -2.0067   -1.1582 C.3       1 <0>        -0.1100
      5 C5          1.9621   -2.2714   -0.0941 C.3       1 <0>        -0.0207
      6 C6          1.6287   -1.5413    1.1806 C.ar      1 <0>        -0.0682
      7 C7          0.7315   -0.4976    1.2240 C.ar      1 <0>        -0.0584
      8 C8          0.4736    0.1376    2.4317 C.ar      1 <0>        -0.1243
      9 C9          1.1061   -0.2707    3.5879 C.ar      1 <0>        -0.0875
     10 C10         2.0037   -1.3209    3.5450 C.ar      1 <0>        -0.0606
     11 C11         2.2628   -1.9521    2.3458 C.ar      1 <0>        -0.0822
     12 C12         2.6974   -1.7746    4.8036 C.3       1 <0>         0.3696
     13 O1          1.8504   -1.5303    5.9291 O.3       1 <0>        -0.3763
     14 C13         2.4110   -1.9539    7.1756 C.3       1 <0>         0.0514
     15 C14         2.7234   -3.4523    7.0970 C.3       1 <0>        -0.1875
     16 C15         3.6171   -3.7084    5.8785 C.3       1 <0>         0.0514
     17 O2          2.9798   -3.1733    4.7144 O.3       1 <0>        -0.3763
     18 C16         3.9862   -1.0115    4.9699 C.ar      1 <0>        -0.1546
     19 C17         5.1548   -1.5047    4.4164 C.ar      1 <0>        -0.1125
     20 C18         6.3381   -0.8120    4.5649 C.ar      1 <0>        -0.0889
     21 C19         6.3550    0.3908    5.2757 C.ar      1 <0>        -0.1202
     22 C20         5.1713    0.8829    5.8313 C.ar      1 <0>        -0.0890
     23 C21         3.9944    0.1819    5.6704 C.ar      1 <0>        -0.1127
     24 C22         7.6170    1.1374    5.4393 C.2       1 <0>         0.5183
     25 O3          8.6515    0.7038    4.9522 O.co2     1 <0>        -0.6857
     26 O4          7.6285    2.1898    6.0621 O.co2     1 <0>        -0.6857
     27 C23         3.3212   -1.7931   -0.6088 C.3       1 <0>        -0.1411
     28 C24         2.0307   -3.7736    0.1880 C.3       1 <0>        -0.1421
     29 C25        -1.4352   -0.5282    0.0264 C.3       1 <0>        -0.1378
     30 H1          1.0039    1.9031    0.0027 H         1 <0>         0.0579
     31 H2         -0.5459    1.8868   -0.8726 H         1 <0>         0.0561
     32 H3         -0.5289    1.8773    0.9072 H         1 <0>         0.0588
     33 H4          0.0697   -0.2681   -2.1352 H         1 <0>         0.0651
     34 H5          1.6591    0.0032   -1.3751 H         1 <0>         0.0699
     35 H6         -0.0373   -2.4838   -0.8684 H         1 <0>         0.0676
     36 H7          1.2323   -2.4035   -2.1171 H         1 <0>         0.0656
     37 H8         -0.2276    0.9584    2.4660 H         1 <0>         0.1222
     38 H9          0.9003    0.2283    4.5234 H         1 <0>         0.1265
     39 H10         2.9646   -2.7724    2.3130 H         1 <0>         0.1284
     40 H11         3.3290   -1.3995    7.3701 H         1 <0>         0.0655
     41 H12         1.6960   -1.7719    7.9780 H         1 <0>         0.0970
     42 H13         3.2426   -3.7651    8.0029 H         1 <0>         0.0827
     43 H14         1.7950   -4.0140    6.9935 H         1 <0>         0.0771
     44 H15         4.5808   -3.2203    6.0238 H         1 <0>         0.0654
     45 H16         3.7646   -4.7810    5.7532 H         1 <0>         0.0970
     46 H17         5.1401   -2.4345    3.8672 H         1 <0>         0.1175
     47 H18         7.2494   -1.1984    4.1331 H         1 <0>         0.1276
     48 H19         5.1770    1.8119    6.3820 H         1 <0>         0.1277
     49 H20         3.0778    0.5633    6.0955 H         1 <0>         0.1181
     50 H21         3.2741   -0.7248   -0.8203 H         1 <0>         0.0583
     51 H22         4.0829   -1.9804    0.1481 H         1 <0>         0.0588
     52 H23         3.5749   -2.3332   -1.5210 H         1 <0>         0.0566
     53 H24         2.2908   -4.3038   -0.7282 H         1 <0>         0.0559
     54 H25         2.7886   -3.9666    0.9472 H         1 <0>         0.0615
     55 H26         1.0614   -4.1207    0.5459 H         1 <0>         0.0551
     56 H27        -1.9692   -0.1652   -0.8518 H         1 <0>         0.0560
     57 H28        -1.4246   -1.6181    0.0205 H         1 <0>         0.0577
     58 H29        -1.9356   -0.1745    0.9278 H         1 <0>         0.0555
@<TRIPOS>BOND
     1    1    2 1
     2    1   30 1
     3    1   31 1
     4    1   32 1
     5    2    7 1
     6    2    3 1
     7    2   29 1
     8    3    4 1
     9    3   33 1
    10    3   34 1
    11    4    5 1
    12    4   35 1
    13    4   36 1
    14    5    6 1
    15    5   27 1
    16    5   28 1
    17    6   11 ar
    18    6    7 ar
    19    7    8 ar
    20    8    9 ar
    21    8   37 1
    22    9   10 ar
    23    9   38 1
    24   10   11 ar
    25   10   12 1
    26   11   39 1
    27   12   17 1
    28   12   13 1
    29   12   18 1
    30   13   14 1
    31   14   15 1
    32   14   40 1
    33   14   41 1
    34   15   16 1
    35   15   42 1
    36   15   43 1
    37   16   17 1
    38   16   44 1
    39   16   45 1
    40   18   23 ar
    41   18   19 ar
    42   19   20 ar
    43   19   46 1
    44   20   21 ar
    45   20   47 1
    46   21   22 ar
    47   21   24 1
    48   22   23 ar
    49   22   48 1
    50   23   49 1
    51   24   25 2
    52   24   26 1
    53   27   50 1
    54   27   51 1
    55   27   52 1
    56   28   53 1
    57   28   54 1
    58   28   55 1
    59   29   56 1
    60   29   57 1
    61   29   58 1
@<TRIPOS>MOLECULE
CHEMBL119781
   47    49     0     0     0
SMALL
USER_CHARGES

@<TRIPOS>ATOM
      1 C1         -0.0287    1.5439    0.0301 C.3       1 <0>        -0.1391
      2 C2          0.0026    0.0144    0.0090 C.3       1 <0>        -0.0209
      3 C3         -1.4285   -0.5182   -0.0166 C.3       1 <0>        -0.1111
      4 C4         -2.0791   -0.2220    1.3399 C.3       1 <0>        -0.1106
      5 C5         -1.4248   -1.1145    2.3925 C.3       1 <0>        -0.0215
      6 C6          0.0758   -0.9994    2.3260 C.ar      1 <0>        -0.0497
      7 C7          0.7321   -0.4843    1.2293 C.ar      1 <0>        -0.0717
      8 C8          2.1198   -0.4108    1.2266 C.ar      1 <0>        -0.1002
      9 C9          2.8486   -0.8451    2.3125 C.ar      1 <0>        -0.1206
     10 C10         2.1898   -1.3614    3.4216 C.ar      1 <0>        -0.0907
     11 C11         0.8048   -1.4362    3.4224 C.ar      1 <0>        -0.1023
     12 S1          3.1083   -1.9184    4.8183 S.3       1 <0>        -0.0268
     13 C12         4.7883   -1.7866    4.3038 C.ar      1 <0>        -0.1546
     14 C13         5.5241   -0.6456    4.6183 C.ar      1 <0>        -0.0795
     15 C14         6.8262   -0.5400    4.2212 C.ar      1 <0>        -0.0979
     16 C15         7.4222   -1.5801    3.4977 C.ar      1 <0>        -0.0945
     17 C16         6.6801   -2.7252    3.1840 C.ar      1 <0>        -0.0977
     18 C17         5.3799   -2.8260    3.5884 C.ar      1 <0>        -0.0799
     19 C18         8.8246   -1.4698    3.0678 C.2       1 <0>         0.5151
     20 O1          9.4717   -0.4683    3.3424 O.co2     1 <0>        -0.6813
     21 O2          9.3440   -2.3796    2.4356 O.co2     1 <0>        -0.6814
     22 C19        -1.8308   -2.5686    2.1441 C.3       1 <0>        -0.1394
     23 C20        -1.9023   -0.6887    3.7823 C.3       1 <0>        -0.1425
     24 C21         0.7383   -0.4578   -1.2466 C.3       1 <0>        -0.1431
     25 H1          0.9913    1.9283    0.0284 H         1 <0>         0.0564
     26 H2         -0.5559    1.9087   -0.8515 H         1 <0>         0.0565
     27 H3         -0.5439    1.8845    0.9282 H         1 <0>         0.0576
     28 H4         -1.9902   -0.0236   -0.8090 H         1 <0>         0.0656
     29 H5         -1.4167   -1.5942   -0.1909 H         1 <0>         0.0686
     30 H6         -1.9256    0.8254    1.5998 H         1 <0>         0.0687
     31 H7         -3.1467   -0.4357    1.2895 H         1 <0>         0.0658
     32 H8          2.6322   -0.0096    0.3647 H         1 <0>         0.1225
     33 H9          3.9269   -0.7848    2.3015 H         1 <0>         0.1255
     34 H10         0.2902   -1.8370    4.2831 H         1 <0>         0.1243
     35 H11         5.0637    0.1563    5.1764 H         1 <0>         0.1238
     36 H12         7.3956    0.3448    4.4646 H         1 <0>         0.1334
     37 H13         7.1365   -3.5292    2.6257 H         1 <0>         0.1331
     38 H14         4.8079   -3.7106    3.3500 H         1 <0>         0.1226
     39 H15        -1.5011   -2.8732    1.1508 H         1 <0>         0.0583
     40 H16        -1.3657   -3.2088    2.8936 H         1 <0>         0.0568
     41 H17        -2.9150   -2.6596    2.2108 H         1 <0>         0.0568
     42 H18        -2.9861   -0.7892    3.8408 H         1 <0>         0.0569
     43 H19        -1.4374   -1.3236    4.5366 H         1 <0>         0.0595
     44 H20        -1.6236    0.3500    3.9598 H         1 <0>         0.0566
     45 H21         1.7576   -0.0716   -1.2374 H         1 <0>         0.0597
     46 H22         0.7628   -1.5474   -1.2652 H         1 <0>         0.0564
     47 H23         0.2188   -0.0908   -2.1317 H         1 <0>         0.0566
@<TRIPOS>BOND
     1    1    2 1
     2    1   25 1
     3    1   26 1
     4    1   27 1
     5    2    7 1
     6    2    3 1
     7    2   24 1
     8    3    4 1
     9    3   28 1
    10    3   29 1
    11    4    5 1
    12    4   30 1
    13    4   31 1
    14    5    6 1
    15    5   22 1
    16    5   23 1
    17    6   11 ar
    18    6    7 ar
    19    7    8 ar
    20    8    9 ar
    21    8   32 1
    22    9   10 ar
    23    9   33 1
    24   10   11 ar
    25   10   12 1
    26   11   34 1
    27   12   13 1
    28   13   18 ar
    29   13   14 ar
    30   14   15 ar
    31   14   35 1
    32   15   16 ar
    33   15   36 1
    34   16   17 ar
    35   16   19 1
    36   17   18 ar
    37   17   37 1
    38   18   38 1
    39   19   20 2
    40   19   21 1
    41   22   39 1
    42   22   40 1
    43   22   41 1
    44   23   42 1
    45   23   43 1
    46   23   44 1
    47   24   45 1
    48   24   46 1
    49   24   47 1
@<TRIPOS>MOLECULE
CHEMBL396658
   77    82     0     0     0
SMALL
USER_CHARGES

@<TRIPOS>ATOM
      1 C1         -0.4363    0.6234    0.0716 C.3       1 <0>        -0.1399
      2 C2         -0.1710   -0.8798    0.1757 C.3       1 <0>        -0.0202
      3 C3         -1.5027   -1.6208    0.2746 C.3       1 <0>        -0.1115
      4 C4         -2.1361   -1.2950    1.6324 C.3       1 <0>        -0.1114
      5 C5         -1.3112   -1.9721    2.7245 C.3       1 <0>        -0.0238
      6 C6          0.1513   -1.6463    2.5655 C.ar      1 <0>        -0.0271
      7 C7          0.6776   -1.1518    1.3911 C.ar      1 <0>        -0.0791
      8 C8          2.0378   -0.8944    1.2953 C.ar      1 <0>        -0.0563
      9 C9          2.8801   -1.1174    2.3812 C.ar      1 <0>        -0.1350
     10 C10         2.3341   -1.5892    3.5819 C.ar      1 <0>         0.2017
     11 C11         0.9814   -1.8592    3.6608 C.ar      1 <0>        -0.1425
     12 N1          3.1561   -1.7504    4.7018 N.pl3     1 <0>        -0.6171
     13 C12         3.8462   -0.6329    5.2015 C.ar      1 <0>         0.1337
     14 C13         3.6125   -0.2151    6.5005 C.ar      1 <0>        -0.1007
     15 C14         4.2468    0.9104    6.9968 C.ar      1 <0>        -0.1496
     16 C15         5.1189    1.6304    6.1904 C.ar      1 <0>         0.1399
     17 C16         5.3747    1.2123    4.8946 C.ar      1 <0>        -0.1041
     18 C17         4.7577    0.0598    4.3941 C.ar      1 <0>         0.1230
     19 N2          5.0961   -0.3824    3.1568 N.2       1 <0>        -0.5095
     20 C18         4.3278   -0.8837    2.2574 C.2       1 <0>         0.3270
     21 C19         4.9587   -1.2626    0.9750 C.ar      1 <0>        -0.0941
     22 C20         6.1470   -0.6475    0.5727 C.ar      1 <0>        -0.0809
     23 C21         6.7347   -0.9999   -0.6209 C.ar      1 <0>        -0.0979
     24 C22         6.1424   -1.9736   -1.4310 C.ar      1 <0>        -0.1061
     25 C23         4.9532   -2.5888   -1.0279 C.ar      1 <0>        -0.0942
     26 C24         4.3694   -2.2398    0.1686 C.ar      1 <0>        -0.1007
     27 C25         6.7715   -2.3513   -2.7107 C.2       1 <0>         0.5169
     28 O1          7.8115   -1.8128   -3.0632 O.co2     1 <0>        -0.6840
     29 O2          6.2532   -3.2030   -3.4190 O.co2     1 <0>        -0.6841
     30 N3          5.7406    2.7815    6.6881 N.pl3     1 <0>        -1.0529
     31 S1          6.4072    2.7729    8.2040 S.o2      1 <0>         2.6924
     32 O3          6.9761    4.0595    8.4048 O.2       1 <0>        -0.9529
     33 O4          5.4257    2.2294    9.0761 O.2       1 <0>        -0.9482
     34 C26         7.7467    1.6285    8.1777 C.ar      1 <0>        -0.6758
     35 C27         7.5259    0.2988    8.4845 C.ar      1 <0>        -0.0139
     36 C28         8.5767   -0.5990    8.4639 C.ar      1 <0>        -0.1391
     37 C29         9.8483   -0.1673    8.1359 C.ar      1 <0>        -0.0594
     38 C30        10.0690    1.1622    7.8282 C.ar      1 <0>        -0.1401
     39 C31         9.0173    2.0592    7.8446 C.ar      1 <0>        -0.0189
     40 C32         3.2955   -3.0606    5.3422 C.3       1 <0>         0.1110
     41 C33        -1.7902   -1.4847    4.0934 C.3       1 <0>        -0.1410
     42 C34        -1.5027   -3.4873    2.6346 C.3       1 <0>        -0.1393
     43 C35         0.5747   -1.3483   -1.0755 C.3       1 <0>        -0.1472
     44 H1          0.5114    1.1543   -0.0184 H         1 <0>         0.0568
     45 H2         -1.0500    0.8241   -0.8066 H         1 <0>         0.0590
     46 H3         -0.9595    0.9628    0.9656 H         1 <0>         0.0563
     47 H4         -2.1650   -1.2946   -0.5273 H         1 <0>         0.0683
     48 H5         -1.3322   -2.6946    0.1970 H         1 <0>         0.0703
     49 H6         -2.1359   -0.2161    1.7880 H         1 <0>         0.0693
     50 H7         -3.1592   -1.6700    1.6596 H         1 <0>         0.0669
     51 H8          2.4470   -0.5179    0.3694 H         1 <0>         0.1360
     52 H9          0.5647   -2.2393    4.5818 H         1 <0>         0.1270
     53 H10         2.9324   -0.7702    7.1296 H         1 <0>         0.1315
     54 H11         4.0632    1.2294    8.0121 H         1 <0>         0.1606
     55 H12         6.0517    1.7760    4.2699 H         1 <0>         0.1362
     56 H13         6.6043    0.1048    1.1983 H         1 <0>         0.1240
     57 H14         7.6530   -0.5241   -0.9320 H         1 <0>         0.1299
     58 H15         4.4952   -3.3409   -1.6532 H         1 <0>         0.1302
     59 H16         3.4532   -2.7181    0.4822 H         1 <0>         0.1184
     60 H17         5.7810    3.5842    6.1451 H         1 <0>         0.4275
     61 H18         6.5324   -0.0384    8.7408 H         1 <0>         0.1396
     62 H19         8.4044   -1.6377    8.7043 H         1 <0>         0.1332
     63 H20        10.6695   -0.8686    8.1205 H         1 <0>         0.1319
     64 H21        11.0625    1.4996    7.5723 H         1 <0>         0.1341
     65 H22         9.1890    3.0972    7.6006 H         1 <0>         0.1400
     66 H23         4.1250   -3.6013    4.8865 H         1 <0>         0.0449
     67 H24         3.4902   -2.9261    6.4062 H         1 <0>         0.0654
     68 H25         2.3749   -3.6292    5.2103 H         1 <0>         0.0657
     69 H26        -2.8429   -1.7372    4.2210 H         1 <0>         0.0580
     70 H27        -1.2037   -1.9658    4.8761 H         1 <0>         0.0577
     71 H28        -1.6654   -0.4038    4.1583 H         1 <0>         0.0565
     72 H29        -1.1725   -3.8379    1.6568 H         1 <0>         0.0612
     73 H30        -0.9153   -3.9747    3.4127 H         1 <0>         0.0551
     74 H31        -2.5570   -3.7290    2.7701 H         1 <0>         0.0585
     75 H32         1.5218   -0.8149   -1.1551 H         1 <0>         0.0632
     76 H33         0.7656   -2.4192   -1.0050 H         1 <0>         0.0600
     77 H34        -0.0323   -1.1448   -1.9577 H         1 <0>         0.0596
@<TRIPOS>BOND
     1    1    2 1
     2    1   44 1
     3    1   45 1
     4    1   46 1
     5    2    7 1
     6    2    3 1
     7    2   43 1
     8    3    4 1
     9    3   47 1
    10    3   48 1
    11    4    5 1
    12    4   49 1
    13    4   50 1
    14    5    6 1
    15    5   41 1
    16    5   42 1
    17    6   11 ar
    18    6    7 ar
    19    7    8 ar
    20    8    9 ar
    21    8   51 1
    22    9   20 1
    23    9   10 ar
    24   10   11 ar
    25   10   12 1
    26   11   52 1
    27   12   13 1
    28   12   40 1
    29   13   18 ar
    30   13   14 ar
    31   14   15 ar
    32   14   53 1
    33   15   16 ar
    34   15   54 1
    35   16   17 ar
    36   16   30 1
    37   17   18 ar
    38   17   55 1
    39   18   19 1
    40   19   20 2
    41   20   21 1
    42   21   26 ar
    43   21   22 ar
    44   22   23 ar
    45   22   56 1
    46   23   24 ar
    47   23   57 1
    48   24   25 ar
    49   24   27 1
    50   25   26 ar
    51   25   58 1
    52   26   59 1
    53   27   28 2
    54   27   29 1
    55   30   31 1
    56   30   60 1
    57   31   32 2
    58   31   33 2
    59   31   34 1
    60   34   39 ar
    61   34   35 ar
    62   35   36 ar
    63   35   61 1
    64   36   37 ar
    65   36   62 1
    66   37   38 ar
    67   37   63 1
    68   38   39 ar
    69   38   64 1
    70   39   65 1
    71   40   66 1
    72   40   67 1
    73   40   68 1
    74   41   69 1
    75   41   70 1
    76   41   71 1
    77   42   72 1
    78   42   73 1
    79   42   74 1
    80   43   75 1
    81   43   76 1
    82   43   77 1
@<TRIPOS>MOLECULE
CHEMBL91979
   59    61     0     0     0
SMALL
USER_CHARGES

@<TRIPOS>ATOM
      1 C1         -0.0635    0.2254    0.7864 C.3       1 <0>        -0.1530
      2 C2         -0.5275   -1.2311    0.7227 C.3       1 <0>         0.0679
      3 O1         -1.9300   -1.2728    0.4517 O.3       1 <0>        -0.3184
      4 C3         -2.4875   -2.4983    0.2746 C.ar      1 <0>         0.1304
      5 C4         -2.6320   -3.0263   -1.0167 C.ar      1 <0>        -0.0570
      6 C5         -3.2071   -4.2880   -1.1863 C.ar      1 <0>        -0.0824
      7 C6         -3.6281   -5.0049   -0.0859 C.ar      1 <0>        -0.0805
      8 C7         -3.4838   -4.4795    1.1867 C.ar      1 <0>        -0.0858
      9 C8         -2.9106   -3.2345    1.3685 C.ar      1 <0>        -0.0898
     10 C9         -2.7522   -2.6749    2.7587 C.3       1 <0>        -0.0593
     11 C10        -4.1266   -2.5562    3.4204 C.3       1 <0>        -0.1435
     12 C11        -1.8666   -3.6085    3.5864 C.3       1 <0>        -0.1423
     13 C12        -4.2484   -6.3660   -0.2697 C.3       1 <0>        -0.0540
     14 C13        -5.5042   -6.2416   -1.1349 C.3       1 <0>        -0.1474
     15 C14        -3.2456   -7.2949   -0.9570 C.3       1 <0>        -0.1447
     16 C15        -2.1802   -2.2541   -2.1882 C.2       1 <0>         0.1465
     17 C16        -2.7364   -1.0572   -2.6569 C.ar      1 <0>        -0.1589
     18 C17        -3.7962   -0.2396   -2.2486 C.ar      1 <0>        -0.0304
     19 C18        -4.0824    0.9140   -2.9673 C.ar      1 <0>        -0.0660
     20 C19        -3.3217    1.2735   -4.1019 C.ar      1 <0>        -0.0502
     21 C20        -2.2902    0.5138   -4.5314 C.ar      1 <0>        -0.1206
     22 C21        -1.9504   -0.6730   -3.8398 C.ar      1 <0>         0.1064
     23 N1         -1.0262   -1.6001   -4.0048 N.2       1 <0>        -0.3082
     24 N2         -1.1517   -2.5671   -3.0021 N.pl3     1 <0>        -0.4243
     25 H1         -0.5844   -3.3482   -2.9075 H         1 <0>         0.4369
     26 C22        -5.1923    1.7723   -2.5416 C.2       1 <0>        -0.0793
     27 C23        -5.1353    2.4116   -1.3476 C.2       1 <0>        -0.1834
     28 C24        -6.2641    3.1089   -0.8658 C.2       1 <0>         0.5021
     29 O2         -7.3259    3.0517   -1.4752 O.co2     1 <0>        -0.6878
     30 O3         -6.1824    3.7715    0.1620 O.co2     1 <0>        -0.7067
     31 C25        -6.3964    1.9438   -3.4314 C.3       1 <0>        -0.0876
     32 H2          1.0063    0.2572    0.9931 H         1 <0>         0.0726
     33 H3         -0.2637    0.7126   -0.1678 H         1 <0>         0.0673
     34 H4         -0.6023    0.7441    1.5794 H         1 <0>         0.0694
     35 H5          0.0113   -1.7498   -0.0702 H         1 <0>         0.0441
     36 H6         -0.3272   -1.7183    1.6770 H         1 <0>         0.0533
     37 H7         -3.3222   -4.7013   -2.1774 H         1 <0>         0.1273
     38 H8         -3.8169   -5.0473    2.0429 H         1 <0>         0.1284
     39 H9         -2.2894   -1.6896    2.7033 H         1 <0>         0.0874
     40 H10        -4.5894   -3.5415    3.4759 H         1 <0>         0.0546
     41 H11        -4.0120   -2.1515    4.4260 H         1 <0>         0.0597
     42 H12        -4.7575   -1.8911    2.8308 H         1 <0>         0.0626
     43 H13        -0.8874   -3.6930    3.1150 H         1 <0>         0.0514
     44 H14        -1.7520   -3.2037    4.5920 H         1 <0>         0.0601
     45 H15        -2.3294   -4.5938    3.6419 H         1 <0>         0.0563
     46 H16        -4.5169   -6.7773    0.7034 H         1 <0>         0.0795
     47 H17        -5.9528   -7.2260   -1.2678 H         1 <0>         0.0585
     48 H18        -6.2186   -5.5798   -0.6452 H         1 <0>         0.0599
     49 H19        -5.2357   -5.8303   -2.1079 H         1 <0>         0.0572
     50 H20        -2.3510   -7.3836   -0.3406 H         1 <0>         0.0555
     51 H21        -3.6942   -8.2794   -1.0899 H         1 <0>         0.0588
     52 H22        -2.9771   -6.8836   -1.9300 H         1 <0>         0.0556
     53 H23        -4.3862   -0.5033   -1.3832 H         1 <0>         0.1219
     54 H24        -3.5708    2.1767   -4.6391 H         1 <0>         0.1288
     55 H25        -1.7250    0.8125   -5.4019 H         1 <0>         0.1261
     56 H26        -4.2262    2.3875   -0.7650 H         1 <0>         0.0944
     57 H27        -7.1729    1.2401   -3.1314 H         1 <0>         0.0614
     58 H28        -6.7738    2.9622   -3.3397 H         1 <0>         0.0925
     59 H29        -6.1133    1.7529   -4.4665 H         1 <0>         0.0272
@<TRIPOS>BOND
     1    1    2 1
     2    1   32 1
     3    1   33 1
     4    1   34 1
     5    2    3 1
     6    2   35 1
     7    2   36 1
     8    3    4 1
     9    4    9 ar
    10    4    5 ar
    11    5    6 ar
    12    5   16 1
    13    6    7 ar
    14    6   37 1
    15    7    8 ar
    16    7   13 1
    17    8    9 ar
    18    8   38 1
    19    9   10 1
    20   10   11 1
    21   10   12 1
    22   10   39 1
    23   11   40 1
    24   11   41 1
    25   11   42 1
    26   12   43 1
    27   12   44 1
    28   12   45 1
    29   13   14 1
    30   13   15 1
    31   13   46 1
    32   14   47 1
    33   14   48 1
    34   14   49 1
    35   15   50 1
    36   15   51 1
    37   15   52 1
    38   16   24 1
    39   16   17 2
    40   17   22 ar
    41   17   18 ar
    42   18   19 ar
    43   18   53 1
    44   19   20 ar
    45   19   26 1
    46   20   21 ar
    47   20   54 1
    48   21   22 ar
    49   21   55 1
    50   22   23 2
    51   23   24 1
    52   24   25 1
    53   26   27 2
    54   26   31 1
    55   27   28 1
    56   27   56 1
    57   28   29 2
    58   28   30 1
    59   31   57 1
    60   31   58 1
    61   31   59 1
@<TRIPOS>MOLECULE
CHEMBL91979__1
   59    61     0     0     0
SMALL
USER_CHARGES

@<TRIPOS>ATOM
      1 C1         -0.2273    2.0949   -0.5666 C.3       1 <0>        -0.1470
      2 C2          0.1086    0.6107   -0.4085 C.3       1 <0>         0.0644
      3 O1         -1.0918   -0.1266   -0.1688 O.3       1 <0>        -0.3208
      4 C3         -0.9685   -1.4694   -0.0044 C.ar      1 <0>         0.1191
      5 C4         -1.0393   -2.3218   -1.1118 C.ar      1 <0>        -0.0286
      6 C5         -0.9112   -3.6978   -0.9328 C.ar      1 <0>        -0.0781
      7 C6         -0.7154   -4.2122    0.3331 C.ar      1 <0>        -0.0738
      8 C7         -0.6463   -3.3666    1.4259 C.ar      1 <0>        -0.0919
      9 C8         -0.7664   -1.9994    1.2592 C.ar      1 <0>        -0.0935
     10 C9         -0.6836   -1.0852    2.4544 C.3       1 <0>        -0.0549
     11 C10        -1.7926   -1.4412    3.4465 C.3       1 <0>        -0.1408
     12 C11         0.6786   -1.2521    3.1307 C.3       1 <0>        -0.1442
     13 C12        -0.5769   -5.7004    0.5255 C.3       1 <0>        -0.0536
     14 C13        -1.8462   -6.3986    0.0332 C.3       1 <0>        -0.1462
     15 C14         0.6263   -6.2080   -0.2718 C.3       1 <0>        -0.1492
     16 C15        -1.2501   -1.7641   -2.4681 C.2       1 <0>         0.1381
     17 C16        -0.5502   -2.1709   -3.6929 C.ar      1 <0>        -0.1593
     18 C17         0.4380   -3.1114   -3.9712 C.ar      1 <0>        -0.0363
     19 C18         0.8991   -3.2530   -5.2793 C.ar      1 <0>        -0.0620
     20 C19         0.3678   -2.4506   -6.3037 C.ar      1 <0>        -0.0553
     21 C20        -0.5984   -1.5307   -6.0330 C.ar      1 <0>        -0.1451
     22 C21        -1.0741   -1.3735   -4.7301 C.ar      1 <0>         0.1203
     23 N1         -2.0143   -0.5545   -4.1651 N.pl3     1 <0>        -0.5112
     24 N2         -2.0996   -0.8211   -2.7953 N.2       1 <0>        -0.2197
     25 H1         -2.5416    0.1057   -4.6415 H         1 <0>         0.4376
     26 C22         1.9416   -4.2415   -5.5871 C.2       1 <0>        -0.0811
     27 C23         1.6874   -5.5618   -5.4367 C.2       1 <0>        -0.1819
     28 C24         2.7330   -6.5034   -5.5759 C.2       1 <0>         0.5020
     29 O2          3.8874   -6.1197   -5.7219 O.co2     1 <0>        -0.6862
     30 O3          2.4846   -7.7029   -5.5504 O.co2     1 <0>        -0.7045
     31 C25         3.2939   -3.7847   -6.0703 C.3       1 <0>        -0.0868
     32 H2          0.6883    2.6572   -0.7494 H         1 <0>         0.0719
     33 H3         -0.9081    2.2257   -1.4078 H         1 <0>         0.0633
     34 H4         -0.7016    2.4592    0.3447 H         1 <0>         0.0631
     35 H5          0.5829    0.2464   -1.3198 H         1 <0>         0.0493
     36 H6          0.7894    0.4798    0.4327 H         1 <0>         0.0515
     37 H7         -0.9653   -4.3610   -1.7834 H         1 <0>         0.1321
     38 H8         -0.4933   -3.7761    2.4135 H         1 <0>         0.1268
     39 H9         -0.8042   -0.0516    2.1302 H         1 <0>         0.0839
     40 H10        -1.6721   -2.4749    3.7707 H         1 <0>         0.0559
     41 H11        -1.7327   -0.7800    4.3110 H         1 <0>         0.0563
     42 H12        -2.7631   -1.3224    2.9647 H         1 <0>         0.0565
     43 H13         0.7385   -0.5908    3.9952 H         1 <0>         0.0573
     44 H14         0.7992   -2.2857    3.4549 H         1 <0>         0.0578
     45 H15         1.4686   -0.9984    2.4239 H         1 <0>         0.0540
     46 H16        -0.4297   -5.9179    1.5834 H         1 <0>         0.0775
     47 H17        -2.7034   -6.0370    0.6011 H         1 <0>         0.0540
     48 H18        -1.9934   -6.1812   -1.0247 H         1 <0>         0.0589
     49 H19        -1.7461   -7.4750    0.1723 H         1 <0>         0.0600
     50 H20         1.5305   -5.7106    0.0790 H         1 <0>         0.0571
     51 H21         0.7264   -7.2844   -0.1326 H         1 <0>         0.0612
     52 H22         0.4790   -5.9905   -1.3297 H         1 <0>         0.0622
     53 H23         0.8439   -3.7254   -3.1809 H         1 <0>         0.1277
     54 H24         0.7297   -2.5646   -7.3149 H         1 <0>         0.1319
     55 H25        -0.9982   -0.9200   -6.8291 H         1 <0>         0.1241
     56 H26         0.6858   -5.8966   -5.2105 H         1 <0>         0.0944
     57 H27         3.9800   -3.7235   -5.2254 H         1 <0>         0.0631
     58 H28         3.6788   -4.4972   -6.7999 H         1 <0>         0.0920
     59 H29         3.2013   -2.8031   -6.5349 H         1 <0>         0.0270
@<TRIPOS>BOND
     1    1    2 1
     2    1   32 1
     3    1   33 1
     4    1   34 1
     5    2    3 1
     6    2   35 1
     7    2   36 1
     8    3    4 1
     9    4    9 ar
    10    4    5 ar
    11    5    6 ar
    12    5   16 1
    13    6    7 ar
    14    6   37 1
    15    7    8 ar
    16    7   13 1
    17    8    9 ar
    18    8   38 1
    19    9   10 1
    20   10   11 1
    21   10   12 1
    22   10   39 1
    23   11   40 1
    24   11   41 1
    25   11   42 1
    26   12   43 1
    27   12   44 1
    28   12   45 1
    29   13   14 1
    30   13   15 1
    31   13   46 1
    32   14   47 1
    33   14   48 1
    34   14   49 1
    35   15   50 1
    36   15   51 1
    37   15   52 1
    38   16   17 1
    39   16   24 2
    40   17   18 ar
    41   17   22 ar
    42   18   19 ar
    43   18   53 1
    44   19   20 ar
    45   19   26 1
    46   20   21 ar
    47   20   54 1
    48   21   22 ar
    49   21   55 1
    50   22   23 1
    51   23   25 1
    52   23   24 1
    53   26   27 2
    54   26   31 1
    55   27   28 1
    56   27   56 1
    57   28   29 2
    58   28   30 1
    59   31   57 1
    60   31   58 1
    61   31   59 1
@<TRIPOS>MOLECULE
CHEMBL329802
   53    55     0     0     0
SMALL
USER_CHARGES

@<TRIPOS>ATOM
      1 C1          0.3177    1.0789   -0.1443 C.3       1 <0>        -0.1191
      2 C2          0.1554   -0.3979    0.1083 C.ar      1 <0>        -0.0711
      3 C3          0.1284   -1.2818   -0.9461 C.ar      1 <0>        -0.1206
      4 C4         -0.0193   -2.6471   -0.7268 C.ar      1 <0>        -0.0626
      5 C5         -0.1371   -3.1287    0.5602 C.ar      1 <0>        -0.0679
      6 C6         -0.1150   -2.2489    1.6303 C.ar      1 <0>        -0.0995
      7 C7          0.0371   -0.8788    1.4154 C.ar      1 <0>        -0.0429
      8 C8          0.0669    0.0532    2.5555 C.2       1 <0>        -0.0440
      9 C9          1.1659    0.1372    3.3273 C.2       1 <0>        -0.0896
     10 C10         1.1464    0.9556    4.5454 C.2       1 <0>         0.1903
     11 N1          2.2234    1.2066    5.3546 N.pl3     1 <0>        -0.5692
     12 H1          3.1266    0.8777    5.2249 H         1 <0>         0.4097
     13 C11         1.7985    1.9963    6.3667 C.2       1 <0>        -0.0186
     14 C12         0.4537    2.2214    6.1630 C.2       1 <0>        -0.0432
     15 N2          0.0948    1.5722    5.0354 N.2       1 <0>        -0.4220
     16 C13        -0.4291    3.0285    7.0168 C.2       1 <0>         0.5568
     17 O1          0.0186    3.5753    8.0160 O.co2     1 <0>        -0.6951
     18 O2         -1.6119    3.1538    6.7287 O.co2     1 <0>        -0.6748
     19 C14        -1.1335    0.9128    2.8577 C.3       1 <0>        -0.1068
     20 C15        -0.2832   -4.5967    0.8659 C.3       1 <0>        -0.0214
     21 C16        -0.7170   -5.3650   -0.3807 C.3       1 <0>        -0.1109
     22 C17         0.2281   -4.9956   -1.5300 C.3       1 <0>        -0.1108
     23 C18        -0.0472   -3.5488   -1.9338 C.3       1 <0>        -0.0221
     24 C19        -1.4239   -3.4631   -2.5958 C.3       1 <0>        -0.1389
     25 C20         1.0200   -3.0913   -2.9301 C.3       1 <0>        -0.1413
     26 C21         1.0584   -5.1459    1.3554 C.3       1 <0>        -0.1389
     27 C22        -1.3334   -4.7814    1.9631 C.3       1 <0>        -0.1440
     28 H2          1.3779    1.3321   -0.1507 H         1 <0>         0.0678
     29 H3         -0.1223    1.3331   -1.1086 H         1 <0>         0.0625
     30 H4         -0.1850    1.6397    0.6436 H         1 <0>         0.0766
     31 H5          0.2227   -0.9107   -1.9560 H         1 <0>         0.1199
     32 H6         -0.2124   -2.6264    2.6374 H         1 <0>         0.1236
     33 H7          2.0624   -0.3976    3.0504 H         1 <0>         0.1191
     34 H8          2.3982    2.3775    7.1800 H         1 <0>         0.1797
     35 H9         -1.7481    0.4254    3.6145 H         1 <0>         0.0768
     36 H10        -0.8018    1.8827    3.2284 H         1 <0>         0.0969
     37 H11        -1.7187    1.0521    1.9487 H         1 <0>         0.0454
     38 H12        -0.6610   -6.4366   -0.1894 H         1 <0>         0.0652
     39 H13        -1.7389   -5.0914   -0.6433 H         1 <0>         0.0686
     40 H14         1.2625   -5.0944   -1.2009 H         1 <0>         0.0680
     41 H15         0.0481   -5.6545   -2.3795 H         1 <0>         0.0647
     42 H16        -1.6159   -2.4351   -2.9032 H         1 <0>         0.0558
     43 H17        -1.4481   -4.1142   -3.4696 H         1 <0>         0.0559
     44 H18        -2.1886   -3.7789   -1.8861 H         1 <0>         0.0585
     45 H19         2.0019   -3.1414   -2.4594 H         1 <0>         0.0556
     46 H20         1.0029   -3.7413   -3.8049 H         1 <0>         0.0558
     47 H21         0.8156   -2.0652   -3.2359 H         1 <0>         0.0585
     48 H22         1.3618   -4.6135    2.2568 H         1 <0>         0.0565
     49 H23         0.9567   -6.2082    1.5777 H         1 <0>         0.0564
     50 H24         1.8122   -5.0074    0.5804 H         1 <0>         0.0568
     51 H25        -2.2888   -4.3823    1.6224 H         1 <0>         0.0571
     52 H26        -1.4420   -5.8425    2.1872 H         1 <0>         0.0563
     53 H27        -1.0175   -4.2508    2.8613 H         1 <0>         0.0608
@<TRIPOS>BOND
     1    1    2 1
     2    1   28 1
     3    1   29 1
     4    1   30 1
     5    2    7 ar
     6    2    3 ar
     7    3    4 ar
     8    3   31 1
     9    4   23 1
    10    4    5 ar
    11    5    6 ar
    12    5   20 1
    13    6    7 ar
    14    6   32 1
    15    7    8 1
    16    8    9 2
    17    8   19 1
    18    9   10 1
    19    9   33 1
    20   10   15 2
    21   10   11 1
    22   11   12 1
    23   11   13 1
    24   13   14 2
    25   13   34 1
    26   14   15 1
    27   14   16 1
    28   16   17 2
    29   16   18 1
    30   19   35 1
    31   19   36 1
    32   19   37 1
    33   20   21 1
    34   20   26 1
    35   20   27 1
    36   21   22 1
    37   21   38 1
    38   21   39 1
    39   22   23 1
    40   22   40 1
    41   22   41 1
    42   23   24 1
    43   23   25 1
    44   24   42 1
    45   24   43 1
    46   24   44 1
    47   25   45 1
    48   25   46 1
    49   25   47 1
    50   26   48 1
    51   26   49 1
    52   26   50 1
    53   27   51 1
    54   27   52 1
    55   27   53 1
@<TRIPOS>MOLECULE
CHEMBL329802__1
   54    56     0     0     0
SMALL
USER_CHARGES

@<TRIPOS>ATOM
      1 C1          0.0654    0.9794   -0.1670 C.3       1 <0>        -0.1226
      2 C2         -0.1671   -0.4742    0.1552 C.ar      1 <0>        -0.0613
      3 C3         -0.3853   -1.3813   -0.8564 C.ar      1 <0>        -0.1176
      4 C4         -0.5997   -2.7258   -0.5729 C.ar      1 <0>        -0.0386
      5 C5         -0.5915   -3.1633    0.7349 C.ar      1 <0>        -0.0632
      6 C6         -0.3765   -2.2595    1.7629 C.ar      1 <0>        -0.0880
      7 C7         -0.1569   -0.9105    1.4831 C.ar      1 <0>        -0.0880
      8 C8          0.0780    0.0466    2.5778 C.2       1 <0>         0.0235
      9 C9          1.2668    0.0699    3.2076 C.2       1 <0>        -0.1427
     10 C10         1.4434    0.8902    4.4117 C.cat     1 <0>         0.3162
     11 N1          0.4509    1.5751    5.0625 N.pl3     1 <0>        -0.5181
     12 H1         -0.4856    1.6033    4.8112 H         1 <0>         0.4546
     13 C11         1.0137    2.2042    6.1189 C.2       1 <0>         0.0437
     14 C12         2.3569    1.8939    6.1020 C.2       1 <0>         0.0046
     15 N2          2.5780    1.0835    5.0455 N.pl3     1 <0>        -0.4412
     16 C13         3.3657    2.3572    7.0650 C.2       1 <0>         0.5439
     17 O1          4.5331    2.0111    6.9424 O.co2     1 <0>        -0.6515
     18 O2          3.0383    3.0893    7.9895 O.co2     1 <0>        -0.6332
     19 C14        -1.0132    0.9998    2.9924 C.3       1 <0>        -0.1684
     20 C15        -0.8009   -4.6080    1.1075 C.3       1 <0>        -0.0238
     21 C16        -1.4374   -5.3750   -0.0496 C.3       1 <0>        -0.1136
     22 C17        -0.6175   -5.1065   -1.3170 C.3       1 <0>        -0.1137
     23 C18        -0.8389   -3.6545   -1.7353 C.3       1 <0>        -0.0272
     24 C19        -2.2772   -3.4854   -2.2286 C.3       1 <0>        -0.1405
     25 C20         0.1269   -3.3032   -2.8688 C.3       1 <0>        -0.1440
     26 C21         0.5491   -5.2412    1.4503 C.3       1 <0>        -0.1411
     27 C22        -1.7183   -4.6859    2.3295 C.3       1 <0>        -0.1437
     28 H2          1.1318    1.1537   -0.3103 H         1 <0>         0.0752
     29 H3         -0.4712    1.2397   -1.0794 H         1 <0>         0.0723
     30 H4         -0.2962    1.5963    0.6557 H         1 <0>         0.0663
     31 H5         -0.3904   -1.0450   -1.8827 H         1 <0>         0.1284
     32 H6         -0.3754   -2.6022    2.7871 H         1 <0>         0.1269
     33 H7          2.0911   -0.5150    2.8271 H         1 <0>         0.1668
     34 H8          0.5076    2.8308    6.8383 H         1 <0>         0.2282
     35 H9         -1.6050    0.5500    3.7897 H         1 <0>         0.0962
     36 H10        -0.5681    1.9283    3.3499 H         1 <0>         0.0788
     37 H11        -1.6558    1.2105    2.1375 H         1 <0>         0.1027
     38 H12        -1.4332   -6.4424    0.1711 H         1 <0>         0.0706
     39 H13        -2.4622   -5.0340   -0.1963 H         1 <0>         0.0701
     40 H14         0.4401   -5.2723   -1.1121 H         1 <0>         0.0704
     41 H15        -0.9462   -5.7726   -2.1148 H         1 <0>         0.0707
     42 H16        -2.4334   -2.4545   -2.5465 H         1 <0>         0.0564
     43 H17        -2.4541   -4.1558   -3.0696 H         1 <0>         0.0620
     44 H18        -2.9689   -3.7253   -1.4210 H         1 <0>         0.0591
     45 H19         1.1533   -3.4129   -2.5187 H         1 <0>         0.0575
     46 H20        -0.0430   -3.9731   -3.7116 H         1 <0>         0.0618
     47 H21        -0.0415   -2.2733   -3.1835 H         1 <0>         0.0591
     48 H22         0.9976   -4.7089    2.2891 H         1 <0>         0.0554
     49 H23         0.4018   -6.2869    1.7205 H         1 <0>         0.0617
     50 H24         1.2097   -5.1790    0.5855 H         1 <0>         0.0596
     51 H25        -2.6782   -4.2268    2.0930 H         1 <0>         0.0572
     52 H26        -1.8723   -5.7299    2.6023 H         1 <0>         0.0620
     53 H27        -1.2580   -4.1565    3.1637 H         1 <0>         0.0569
     54 H28         3.4357    0.7069    4.7937 H         1 <0>         0.4632
@<TRIPOS>BOND
     1    1    2 1
     2    1   28 1
     3    1   29 1
     4    1   30 1
     5    2    7 ar
     6    2    3 ar
     7    3    4 ar
     8    3   31 1
     9    4   23 1
    10    4    5 ar
    11    5    6 ar
    12    5   20 1
    13    6    7 ar
    14    6   32 1
    15    7    8 1
    16    8    9 2
    17    8   19 1
    18    9   10 1
    19    9   33 1
    20   10   15 2
    21   10   11 1
    22   11   12 1
    23   11   13 1
    24   13   14 2
    25   13   34 1
    26   14   15 1
    27   14   16 1
    28   15   54 1
    29   16   17 2
    30   16   18 1
    31   19   35 1
    32   19   36 1
    33   19   37 1
    34   20   21 1
    35   20   26 1
    36   20   27 1
    37   21   22 1
    38   21   38 1
    39   21   39 1
    40   22   23 1
    41   22   40 1
    42   22   41 1
    43   23   24 1
    44   23   25 1
    45   24   42 1
    46   24   43 1
    47   24   44 1
    48   25   45 1
    49   25   46 1
    50   25   47 1
    51   26   48 1
    52   26   49 1
    53   26   50 1
    54   27   51 1
    55   27   52 1
    56   27   53 1
@<TRIPOS>MOLECULE
CHEMBL187021
   64    67     0     0     0
SMALL
USER_CHARGES

@<TRIPOS>ATOM
      1 C1         -0.0187    1.5258    0.0104 C.3       1 <0>        -0.1483
      2 C2          0.0021   -0.0041    0.0020 C.3       1 <0>        -0.1241
      3 C3          0.7182   -0.4975   -1.2568 C.3       1 <0>         0.0593
      4 O1          0.7376   -1.9263   -1.2646 O.3       1 <0>        -0.3031
      5 C4          1.3410   -2.5291   -2.3219 C.ar      1 <0>         0.1438
      6 C5          1.9076   -1.7677   -3.3274 C.ar      1 <0>        -0.2107
      7 C6          2.5286   -2.3744   -4.4114 C.ar      1 <0>        -0.0249
      8 C7          2.5872   -3.7500   -4.4898 C.ar      1 <0>        -0.0981
      9 C8          2.0191   -4.5239   -3.4891 C.ar      1 <0>        -0.0620
     10 C9          1.3989   -3.9244   -2.3985 C.ar      1 <0>        -0.0623
     11 C10         0.7995   -4.7571   -1.3285 C.2       1 <0>         0.0424
     12 C11         1.4177   -4.8750   -0.1458 C.2       1 <0>        -0.1950
     13 C12         2.5747   -4.5269    0.7549 C.3       1 <0>        -0.1283
     14 C13         1.4559   -5.4467    1.2481 C.3       1 <0>        -0.1258
     15 C14        -0.4832   -5.4590   -1.5671 C.ar      1 <0>        -0.0552
     16 C15        -0.5238   -6.8544   -1.5733 C.ar      1 <0>        -0.1206
     17 C16        -1.7102   -7.5055   -1.7940 C.ar      1 <0>        -0.0871
     18 C17        -2.8803   -6.7707   -2.0125 C.ar      1 <0>        -0.1284
     19 C18        -2.8380   -5.3725   -2.0056 C.ar      1 <0>        -0.0868
     20 C19        -1.6510   -4.7244   -1.7798 C.ar      1 <0>        -0.1154
     21 C20        -4.1560   -7.4689   -2.2503 C.2       1 <0>         0.5184
     22 O2         -4.1922   -8.6916   -2.2567 O.co2     1 <0>        -0.6884
     23 O3         -5.1788   -6.8258   -2.4414 O.co2     1 <0>        -0.6883
     24 C21         3.2603   -4.4684   -5.6304 C.3       1 <0>        -0.0168
     25 C22         3.4410   -3.5326   -6.8236 C.3       1 <0>        -0.1116
     26 C23         4.1153   -2.2465   -6.3319 C.3       1 <0>        -0.1099
     27 C24         3.1156   -1.4776   -5.4707 C.3       1 <0>        -0.0234
     28 C25         1.9906   -0.9431   -6.3592 C.3       1 <0>        -0.1394
     29 C26         3.8280   -0.3022   -4.7985 C.3       1 <0>        -0.1399
     30 C27         4.6306   -4.9709   -5.1714 C.3       1 <0>        -0.1384
     31 C28         2.4013   -5.6625   -6.0514 C.3       1 <0>        -0.1451
     32 H1          1.0039    1.9031    0.0027 H         1 <0>         0.0553
     33 H2         -0.5459    1.8868   -0.8726 H         1 <0>         0.0570
     34 H3         -0.5289    1.8773    0.9072 H         1 <0>         0.0636
     35 H4          0.5293   -0.3651    0.8851 H         1 <0>         0.0721
     36 H5         -1.0205   -0.3814    0.0098 H         1 <0>         0.0755
     37 H6          0.1910   -0.1364   -2.1398 H         1 <0>         0.0592
     38 H7          1.7408   -0.1202   -1.2645 H         1 <0>         0.0574
     39 H8          1.8665   -0.6901   -3.2693 H         1 <0>         0.1262
     40 H9          2.0617   -5.6010   -3.5556 H         1 <0>         0.1292
     41 H10         3.5414   -4.9780    0.5310 H         1 <0>         0.0959
     42 H11         2.6091   -3.5172    1.1640 H         1 <0>         0.0961
     43 H12         0.7585   -5.0385    1.9796 H         1 <0>         0.0990
     44 H13         1.6797   -6.5084    1.3516 H         1 <0>         0.0998
     45 H14         0.3797   -7.4214   -1.4046 H         1 <0>         0.1111
     46 H15        -1.7412   -8.5850   -1.7995 H         1 <0>         0.1257
     47 H16        -3.7406   -4.8039   -2.1741 H         1 <0>         0.1249
     48 H17        -1.6188   -3.6449   -1.7702 H         1 <0>         0.1119
     49 H18         4.0688   -4.0123   -7.5745 H         1 <0>         0.0660
     50 H19         2.4684   -3.2954   -7.2546 H         1 <0>         0.0693
     51 H20         4.9948   -2.4967   -5.7386 H         1 <0>         0.0684
     52 H21         4.4095   -1.6365   -7.1860 H         1 <0>         0.0653
     53 H22         1.2851   -0.3769   -5.7510 H         1 <0>         0.0547
     54 H23         2.4113   -0.2937   -7.1269 H         1 <0>         0.0572
     55 H24         1.4737   -1.7779   -6.8326 H         1 <0>         0.0608
     56 H25         4.6243   -0.6790   -4.1566 H         1 <0>         0.0560
     57 H26         4.2541    0.3490   -5.5617 H         1 <0>         0.0572
     58 H27         3.1132    0.2607   -4.1983 H         1 <0>         0.0555
     59 H28         4.5044   -5.6551   -4.3323 H         1 <0>         0.0558
     60 H29         5.1209   -5.4915   -5.9941 H         1 <0>         0.0561
     61 H30         5.2428   -4.1242   -4.8609 H         1 <0>         0.0560
     62 H31         1.4202   -5.3100   -6.3698 H         1 <0>         0.0586
     63 H32         2.8851   -6.1851   -6.8767 H         1 <0>         0.0566
     64 H33         2.2867   -6.3431   -5.2078 H         1 <0>         0.0603
@<TRIPOS>BOND
     1    1    2 1
     2    1   32 1
     3    1   33 1
     4    1   34 1
     5    2    3 1
     6    2   35 1
     7    2   36 1
     8    3    4 1
     9    3   37 1
    10    3   38 1
    11    4    5 1
    12    5   10 ar
    13    5    6 ar
    14    6    7 ar
    15    6   39 1
    16    7   27 1
    17    7    8 ar
    18    8    9 ar
    19    8   24 1
    20    9   10 ar
    21    9   40 1
    22   10   11 1
    23   11   12 2
    24   11   15 1
    25   12   14 1
    26   12   13 1
    27   13   14 1
    28   13   41 1
    29   13   42 1
    30   14   43 1
    31   14   44 1
    32   15   20 ar
    33   15   16 ar
    34   16   17 ar
    35   16   45 1
    36   17   18 ar
    37   17   46 1
    38   18   19 ar
    39   18   21 1
    40   19   20 ar
    41   19   47 1
    42   20   48 1
    43   21   22 2
    44   21   23 1
    45   24   25 1
    46   24   30 1
    47   24   31 1
    48   25   26 1
    49   25   49 1
    50   25   50 1
    51   26   27 1
    52   26   51 1
    53   26   52 1
    54   27   28 1
    55   27   29 1
    56   28   53 1
    57   28   54 1
    58   28   55 1
    59   29   56 1
    60   29   57 1
    61   29   58 1
    62   30   59 1
    63   30   60 1
    64   30   61 1
    65   31   62 1
    66   31   63 1
    67   31   64 1
@<TRIPOS>MOLECULE
CHEMBL433178
   64    66     0     0     0
SMALL
USER_CHARGES

@<TRIPOS>ATOM
      1 C1         -0.6858    2.7965    0.1916 C.3       1 <0>        -0.1203
      2 C2         -0.4195    1.3557   -0.1611 C.ar      1 <0>        -0.0684
      3 C3         -0.4667    0.9441   -1.4733 C.ar      1 <0>        -0.1197
      4 C4         -0.2206   -0.3820   -1.8127 C.ar      1 <0>        -0.0604
      5 C5          0.0779   -1.3007   -0.8283 C.ar      1 <0>        -0.0677
      6 C6          0.1245   -0.9003    0.4972 C.ar      1 <0>        -0.0984
      7 C7         -0.1173    0.4301    0.8423 C.ar      1 <0>        -0.0462
      8 C8         -0.0599    0.8542    2.2510 C.2       1 <0>        -0.0348
      9 C9          1.1320    0.9994    2.8629 C.2       1 <0>        -0.1126
     10 C10         1.1883    1.2847    4.2984 C.2       1 <0>         0.2443
     11 N1          0.1428    1.4004    5.1009 N.2       1 <0>        -0.4565
     12 C11         0.5496    1.6598    6.3363 C.2       1 <0>         0.0093
     13 C12         1.9315    1.7143    6.3305 C.2       1 <0>        -0.0087
     14 N2          2.3258    1.4682    5.0252 N.pl3     1 <0>        -0.8077
     15 S1          3.8803    1.4113    4.4573 S.o2      1 <0>         2.7709
     16 O1          3.8038    1.5719    3.0475 O.2       1 <0>        -0.9693
     17 O2          4.6461    2.2784    5.2824 O.2       1 <0>        -0.9038
     18 N3          4.4450   -0.1216    4.7290 N.pl3     1 <0>        -0.9953
     19 C13         4.2656   -1.1595    3.7107 C.3       1 <0>         0.0854
     20 C14         5.1238   -0.4398    5.9876 C.3       1 <0>         0.0998
     21 C15         2.7764    1.9665    7.4399 C.2       1 <0>         0.5373
     22 O3          2.3494    2.5862    8.4068 O.co2     1 <0>        -0.6658
     23 O4          3.9340    1.5650    7.4322 O.co2     1 <0>        -0.6588
     24 C16        -1.3340    1.1259    3.0086 C.3       1 <0>        -0.1119
     25 C17         0.3703   -2.7473   -1.1315 C.3       1 <0>        -0.0216
     26 C18        -0.1317   -3.1166   -2.5257 C.3       1 <0>        -0.1104
     27 C19         0.4083   -2.0851   -3.5233 C.3       1 <0>        -0.1115
     28 C20        -0.2985   -0.7551   -3.2707 C.3       1 <0>        -0.0223
     29 C21        -1.7670   -0.8779   -3.6823 C.3       1 <0>        -0.1382
     30 C22         0.3693    0.3379   -4.1075 C.3       1 <0>        -0.1421
     31 C23         1.8805   -2.9822   -1.0605 C.3       1 <0>        -0.1405
     32 C24        -0.3260   -3.6307   -0.0943 C.3       1 <0>        -0.1430
     33 H1          0.2501    3.3548    0.1699 H         1 <0>         0.0715
     34 H2         -1.3811    3.2248   -0.5304 H         1 <0>         0.0631
     35 H3         -1.1190    2.8520    1.1902 H         1 <0>         0.0740
     36 H4         -0.6980    1.6592   -2.2488 H         1 <0>         0.1209
     37 H5          0.3533   -1.6214    1.2679 H         1 <0>         0.1237
     38 H6          2.0457    0.9053    2.2949 H         1 <0>         0.1531
     39 H7         -0.0871    1.8034    7.1968 H         1 <0>         0.1814
     40 H8          3.7439   -0.7388    2.8511 H         1 <0>         0.0786
     41 H9          5.2404   -1.5330    3.3971 H         1 <0>         0.0668
     42 H10         3.6792   -1.9788    4.1264 H         1 <0>         0.0592
     43 H11         4.3908   -0.7761    6.7209 H         1 <0>         0.0596
     44 H12         5.8552   -1.2296    5.8164 H         1 <0>         0.0605
     45 H13         5.6305    0.4497    6.3621 H         1 <0>         0.1009
     46 H14        -1.6220    0.2349    3.5665 H         1 <0>         0.0741
     47 H15        -1.1757    1.9528    3.7009 H         1 <0>         0.0982
     48 H16        -2.1258    1.3865    2.3063 H         1 <0>         0.0497
     49 H17         0.2277   -4.1100   -2.7941 H         1 <0>         0.0654
     50 H18        -1.2216   -3.1041   -2.5386 H         1 <0>         0.0680
     51 H19         1.4820   -1.9633   -3.3804 H         1 <0>         0.0691
     52 H20         0.2085   -2.4195   -4.5413 H         1 <0>         0.0649
     53 H21        -2.2703    0.0756   -3.5218 H         1 <0>         0.0554
     54 H22        -1.8275   -1.1477   -4.7366 H         1 <0>         0.0559
     55 H23        -2.2494   -1.6490   -3.0816 H         1 <0>         0.0580
     56 H24         1.4136    0.4357   -3.8107 H         1 <0>         0.0570
     57 H25         0.3150    0.0716   -5.1631 H         1 <0>         0.0559
     58 H26        -0.1448    1.2852   -3.9449 H         1 <0>         0.0585
     59 H27         2.2395   -2.7387   -0.0606 H         1 <0>         0.0579
     60 H28         2.0961   -4.0280   -1.2794 H         1 <0>         0.0567
     61 H29         2.3817   -2.3473   -1.7911 H         1 <0>         0.0581
     62 H30        -1.4017   -3.4592   -0.1344 H         1 <0>         0.0561
     63 H31        -0.1168   -4.6784   -0.3103 H         1 <0>         0.0565
     64 H32         0.0445   -3.3839    0.9006 H         1 <0>         0.0602
@<TRIPOS>BOND
     1    1    2 1
     2    1   33 1
     3    1   34 1
     4    1   35 1
     5    2    7 ar
     6    2    3 ar
     7    3    4 ar
     8    3   36 1
     9    4   28 1
    10    4    5 ar
    11    5    6 ar
    12    5   25 1
    13    6    7 ar
    14    6   37 1
    15    7    8 1
    16    8    9 2
    17    8   24 1
    18    9   10 1
    19    9   38 1
    20   10   14 1
    21   10   11 2
    22   11   12 1
    23   12   13 2
    24   12   39 1
    25   13   14 1
    26   13   21 1
    27   14   15 1
    28   15   16 2
    29   15   17 2
    30   15   18 1
    31   18   19 1
    32   18   20 1
    33   19   40 1
    34   19   41 1
    35   19   42 1
    36   20   43 1
    37   20   44 1
    38   20   45 1
    39   21   22 2
    40   21   23 1
    41   24   46 1
    42   24   47 1
    43   24   48 1
    44   25   26 1
    45   25   31 1
    46   25   32 1
    47   26   27 1
    48   26   49 1
    49   26   50 1
    50   27   28 1
    51   27   51 1
    52   27   52 1
    53   28   29 1
    54   28   30 1
    55   29   53 1
    56   29   54 1
    57   29   55 1
    58   30   56 1
    59   30   57 1
    60   30   58 1
    61   31   59 1
    62   31   60 1
    63   31   61 1
    64   32   62 1
    65   32   63 1
    66   32   64 1
@<TRIPOS>MOLECULE
CHEMBL130317
   55    56     0     0     0
SMALL
USER_CHARGES

@<TRIPOS>ATOM
      1 C1         -0.3031    1.7045    0.1415 C.3       1 <0>        -0.1473
      2 C2         -0.1880    0.1808    0.0648 C.3       1 <0>        -0.0587
      3 C3          0.6172   -0.3308    1.2610 C.3       1 <0>        -0.1406
      4 C4         -1.5660   -0.4289    0.0892 C.ar      1 <0>        -0.0856
      5 C5         -2.3970   -0.2049    1.1669 C.ar      1 <0>        -0.0886
      6 C6         -3.6776   -0.7660    1.1993 C.ar      1 <0>        -0.0117
      7 C7         -4.1191   -1.5551    0.1415 C.ar      1 <0>        -0.0783
      8 C8         -3.2781   -1.7828   -0.9512 C.ar      1 <0>        -0.0373
      9 C9         -1.9950   -1.2078   -0.9743 C.ar      1 <0>         0.1061
     10 O1         -1.1750   -1.4201   -2.0345 O.3       1 <0>        -0.3119
     11 C10        -1.1785   -0.4308   -3.0657 C.3       1 <0>         0.0091
     12 C11        -0.2953   -0.8986   -4.2242 C.3       1 <0>         0.2738
     13 F1          1.0126   -1.0897   -3.7658 F         1 <0>        -0.2004
     14 F2         -0.7921   -2.1037   -4.7322 F         1 <0>        -0.1959
     15 C12        -3.7340   -2.6135   -2.0720 C.2       1 <0>        -0.0975
     16 C13        -4.6365   -2.1219   -2.9573 C.2       1 <0>        -0.0966
     17 C14        -5.1354   -0.8157   -2.8012 C.2       1 <0>        -0.1590
     18 C15        -6.0430   -0.3213   -3.6916 C.2       1 <0>        -0.0747
     19 C16        -6.5404    0.9809   -3.5359 C.2       1 <0>        -0.0831
     20 C17        -7.4488    1.4757   -4.4271 C.2       1 <0>        -0.1329
     21 C18        -7.8245    2.8286   -4.3694 C.2       1 <0>         0.4391
     22 O2         -7.2118    3.6552   -3.5211 O.co2     1 <0>        -0.6901
     23 O3         -8.7938    3.2858   -5.1630 O.co2     1 <0>        -0.7144
     24 C19        -6.0722    1.8338   -2.3851 C.3       1 <0>        -0.0984
     25 C20        -3.1996   -4.0126   -2.2392 C.3       1 <0>        -0.1025
     26 C21        -4.5622   -0.5213    2.3579 C.2       1 <0>         0.0288
     27 C22        -5.8212   -1.0087    2.5172 C.2       1 <0>        -0.1883
     28 C23        -6.2891   -0.5275    3.7568 C.2       1 <0>        -0.2097
     29 C24        -5.3029    0.2217    4.2868 C.2       1 <0>        -0.0363
     30 O4         -4.2588    0.2186    3.4416 O.3       1 <0>        -0.1717
     31 H1          0.6936    2.1455    0.1239 H         1 <0>         0.0603
     32 H2         -0.8767    2.0689   -0.7106 H         1 <0>         0.0563
     33 H3         -0.8081    1.9847    1.0660 H         1 <0>         0.0588
     34 H4          0.3169   -0.0994   -0.8596 H         1 <0>         0.0862
     35 H5          0.6992   -1.4163    1.2063 H         1 <0>         0.0567
     36 H6          1.6138    0.1102    1.2434 H         1 <0>         0.0588
     37 H7          0.1122   -0.0506    2.1854 H         1 <0>         0.0560
     38 H8         -2.0571    0.4064    1.9897 H         1 <0>         0.1317
     39 H9         -5.1075   -1.9899    0.1650 H         1 <0>         0.1349
     40 H10        -2.1975   -0.2820   -3.4228 H         1 <0>         0.0908
     41 H11        -0.7915    0.5081   -2.6698 H         1 <0>         0.0851
     42 H12        -0.2980   -0.1440   -5.0107 H         1 <0>         0.1274
     43 H13        -4.9720   -2.7331   -3.7821 H         1 <0>         0.1178
     44 H14        -4.7999   -0.2045   -1.9765 H         1 <0>         0.1201
     45 H15        -6.3785   -0.9326   -4.5163 H         1 <0>         0.1126
     46 H16        -7.8786    0.8274   -5.1764 H         1 <0>         0.1089
     47 H17        -5.2541    2.4735   -2.7162 H         1 <0>         0.0636
     48 H18        -6.8973    2.4525   -2.0322 H         1 <0>         0.0946
     49 H19        -5.7266    1.1923   -1.5745 H         1 <0>         0.0316
     50 H20        -3.7844   -4.7003   -1.6284 H         1 <0>         0.0644
     51 H21        -3.2711   -4.3061   -3.2865 H         1 <0>         0.0650
     52 H22        -2.1567   -4.0433   -1.9236 H         1 <0>         0.0663
     53 H23        -6.3590   -1.6421    1.8274 H         1 <0>         0.1511
     54 H24        -7.2554   -0.7223    4.1980 H         1 <0>         0.1509
     55 H25        -5.3433    0.7357    5.2358 H         1 <0>         0.2044
@<TRIPOS>BOND
     1    1    2 1
     2    1   31 1
     3    1   32 1
     4    1   33 1
     5    2    3 1
     6    2    4 1
     7    2   34 1
     8    3   35 1
     9    3   36 1
    10    3   37 1
    11    4    9 ar
    12    4    5 ar
    13    5    6 ar
    14    5   38 1
    15    6    7 ar
    16    6   26 1
    17    7    8 ar
    18    7   39 1
    19    8    9 ar
    20    8   15 1
    21    9   10 1
    22   10   11 1
    23   11   12 1
    24   11   40 1
    25   11   41 1
    26   12   13 1
    27   12   14 1
    28   12   42 1
    29   15   16 2
    30   15   25 1
    31   16   17 1
    32   16   43 1
    33   17   18 2
    34   17   44 1
    35   18   19 1
    36   18   45 1
    37   19   20 2
    38   19   24 1
    39   20   21 1
    40   20   46 1
    41   21   22 2
    42   21   23 1
    43   24   47 1
    44   24   48 1
    45   24   49 1
    46   25   50 1
    47   25   51 1
    48   25   52 1
    49   26   30 1
    50   26   27 2
    51   27   28 1
    52   27   53 1
    53   28   29 2
    54   28   54 1
    55   29   30 1
    56   29   55 1
@<TRIPOS>MOLECULE
CHEMBL130374
   55    56     0     0     0
SMALL
USER_CHARGES

@<TRIPOS>ATOM
      1 C1         -0.3032    1.7046    0.1418 C.3       1 <0>        -0.1475
      2 C2         -0.1880    0.1809    0.0650 C.3       1 <0>        -0.0591
      3 C3          0.6171   -0.3306    1.2612 C.3       1 <0>        -0.1407
      4 C4         -1.5660   -0.4288    0.0892 C.ar      1 <0>        -0.0830
      5 C5         -2.3972   -0.2049    1.1670 C.ar      1 <0>        -0.0928
      6 C6         -3.6775   -0.7659    1.1993 C.ar      1 <0>        -0.0027
      7 C7         -4.1193   -1.5541    0.1413 C.ar      1 <0>        -0.0785
      8 C8         -3.2783   -1.7816   -0.9517 C.ar      1 <0>        -0.0368
      9 C9         -1.9948   -1.2076   -0.9742 C.ar      1 <0>         0.1051
     10 O1         -1.1747   -1.4199   -2.0344 O.3       1 <0>        -0.3119
     11 C10        -1.1781   -0.4307   -3.0656 C.3       1 <0>         0.0091
     12 C11        -0.2949   -0.8985   -4.2240 C.3       1 <0>         0.2738
     13 F1          1.0130   -1.0896   -3.7655 F         1 <0>        -0.2004
     14 F2         -0.7917   -2.1035   -4.7322 F         1 <0>        -0.1959
     15 C12        -3.7346   -2.6115   -2.0729 C.2       1 <0>        -0.0974
     16 C13        -4.6370   -2.1190   -2.9579 C.2       1 <0>        -0.0972
     17 C14        -5.1355   -0.8128   -2.8011 C.2       1 <0>        -0.1584
     18 C15        -6.0430   -0.3177   -3.6910 C.2       1 <0>        -0.0753
     19 C16        -6.5399    0.9846   -3.5346 C.2       1 <0>        -0.0829
     20 C17        -7.4483    1.4802   -4.4255 C.2       1 <0>        -0.1331
     21 C18        -7.8236    2.8332   -4.3671 C.2       1 <0>         0.4391
     22 O2         -7.2105    3.6591   -3.5183 O.co2     1 <0>        -0.6901
     23 O3         -8.7927    3.2912   -5.1603 O.co2     1 <0>        -0.7143
     24 C19        -6.0714    1.8367   -2.3834 C.3       1 <0>        -0.0982
     25 C20        -3.2006   -4.0106   -2.2409 C.3       1 <0>        -0.1025
     26 C21        -4.5622   -0.5219    2.3587 C.2       1 <0>        -0.1006
     27 C22        -5.8330   -0.9778    2.5851 C.2       1 <0>        -0.1487
     28 C23        -6.4686   -0.6153    3.7530 C.2       1 <0>        -0.1506
     29 C24        -5.8183    0.1797    4.6405 C.2       1 <0>        -0.1781
     30 S1         -4.2481    0.4375    3.8312 S.3       1 <0>         0.0505
     31 H1          0.6935    2.1457    0.1243 H         1 <0>         0.0606
     32 H2         -0.8768    2.0691   -0.7104 H         1 <0>         0.0566
     33 H3         -0.8082    1.9847    1.0663 H         1 <0>         0.0585
     34 H4          0.3170   -0.0992   -0.8594 H         1 <0>         0.0865
     35 H5          1.6138    0.1104    1.2437 H         1 <0>         0.0591
     36 H6          0.1121   -0.0506    2.1857 H         1 <0>         0.0557
     37 H7          0.6991   -1.4162    1.2065 H         1 <0>         0.0569
     38 H8         -2.0574    0.4065    1.9899 H         1 <0>         0.1277
     39 H9         -5.1077   -1.9886    0.1646 H         1 <0>         0.1330
     40 H10        -2.1971   -0.2818   -3.4228 H         1 <0>         0.0907
     41 H11        -0.7911    0.5082   -2.6697 H         1 <0>         0.0850
     42 H12        -0.2975   -0.1439   -5.0106 H         1 <0>         0.1273
     43 H13        -4.9728   -2.7297   -3.7830 H         1 <0>         0.1175
     44 H14        -4.7997   -0.2021   -1.9760 H         1 <0>         0.1202
     45 H15        -6.3787   -0.9284   -4.5161 H         1 <0>         0.1124
     46 H16        -7.8783    0.8325   -5.1751 H         1 <0>         0.1087
     47 H17        -5.2531    2.4763   -2.7142 H         1 <0>         0.0636
     48 H18        -6.8962    2.4555   -2.0301 H         1 <0>         0.0946
     49 H19        -5.7259    1.1947   -1.5732 H         1 <0>         0.0316
     50 H20        -3.7857   -4.6985   -1.6304 H         1 <0>         0.0642
     51 H21        -3.2723   -4.3035   -3.2883 H         1 <0>         0.0649
     52 H22        -2.1578   -4.0418   -1.9254 H         1 <0>         0.0663
     53 H23        -6.3282   -1.6091    1.8621 H         1 <0>         0.1358
     54 H24        -7.4714   -0.9591    3.9594 H         1 <0>         0.1355
     55 H25        -6.1610    0.5559    5.5931 H         1 <0>         0.1861
@<TRIPOS>BOND
     1    1    2 1
     2    1   31 1
     3    1   32 1
     4    1   33 1
     5    2    3 1
     6    2    4 1
     7    2   34 1
     8    3   35 1
     9    3   36 1
    10    3   37 1
    11    4    9 ar
    12    4    5 ar
    13    5    6 ar
    14    5   38 1
    15    6    7 ar
    16    6   26 1
    17    7    8 ar
    18    7   39 1
    19    8    9 ar
    20    8   15 1
    21    9   10 1
    22   10   11 1
    23   11   12 1
    24   11   40 1
    25   11   41 1
    26   12   13 1
    27   12   14 1
    28   12   42 1
    29   15   16 2
    30   15   25 1
    31   16   17 1
    32   16   43 1
    33   17   18 2
    34   17   44 1
    35   18   19 1
    36   18   45 1
    37   19   20 2
    38   19   24 1
    39   20   21 1
    40   20   46 1
    41   21   22 2
    42   21   23 1
    43   24   47 1
    44   24   48 1
    45   24   49 1
    46   25   50 1
    47   25   51 1
    48   25   52 1
    49   26   30 1
    50   26   27 2
    51   27   28 1
    52   27   53 1
    53   28   29 2
    54   28   54 1
    55   29   30 1
    56   29   55 1
@<TRIPOS>MOLECULE
CHEMBL441235
   51    54     0     0     0
SMALL
USER_CHARGES

@<TRIPOS>ATOM
      1 C1         -0.0184    1.5028    0.0103 C.3       1 <0>        -0.0744
      2 C2          0.0021   -0.0041    0.0020 C.2       1 <0>        -0.0083
      3 C3         -1.0705   -0.8164    0.0025 C.2       1 <0>        -0.0223
      4 N1         -0.6270   -2.0826   -0.0064 N.2       1 <0>        -0.4528
      5 C4          0.6851   -2.0676   -0.0123 C.2       1 <0>         0.2348
      6 O1          1.0981   -0.7883   -0.0131 O.3       1 <0>        -0.1910
      7 C5          1.5619   -3.2577   -0.0227 C.ar      1 <0>        -0.0204
      8 C6          1.0059   -4.5378   -0.0330 C.ar      1 <0>        -0.0701
      9 C7          1.8298   -5.6443   -0.0432 C.ar      1 <0>        -0.1205
     10 C8          3.2044   -5.4871   -0.0433 C.ar      1 <0>        -0.0987
     11 C9          3.7620   -4.2209   -0.0327 C.ar      1 <0>        -0.1204
     12 C10         2.9493   -3.1060   -0.0282 C.ar      1 <0>        -0.0893
     13 C11        -2.5133   -0.3814    0.0119 C.3       1 <0>         0.1607
     14 O2         -2.9758   -0.2362   -1.3324 O.3       1 <0>        -0.3007
     15 C12        -4.2644    0.1531   -1.5018 C.ar      1 <0>         0.3216
     16 C13        -4.7738    0.3061   -2.7851 C.ar      1 <0>        -0.1858
     17 C14        -6.0898    0.7032   -2.9442 C.ar      1 <0>        -0.0360
     18 C15        -6.8536    0.9343   -1.8081 C.ar      1 <0>        -0.1743
     19 C16        -6.2818    0.7624   -0.5634 C.ar      1 <0>         0.1460
     20 N2         -5.0251    0.3779   -0.4436 N.ar      1 <0>        -0.5381
     21 C17        -8.2913    1.3686   -1.9324 C.3       1 <0>        -0.0697
     22 C18        -9.1950    0.1348   -1.9740 C.3       1 <0>        -0.1153
     23 C19       -10.6547    0.5757   -2.1002 C.3       1 <0>        -0.1200
     24 C20       -11.5584   -0.6581   -2.1418 C.3       1 <0>         0.0394
     25 C21       -13.0092   -0.2486   -2.2939 C.2       1 <0>         0.5070
     26 O3        -13.5059    0.3643   -3.2145 O.2       1 <0>        -0.4442
     27 N3        -13.6320   -0.7100   -1.1902 N.am      1 <0>        -0.6854
     28 C22       -12.7675   -1.3427   -0.3865 C.2       1 <0>         0.6503
     29 O4        -13.0760   -1.8509    0.6726 O.2       1 <0>        -0.4683
     30 O5        -11.5213   -1.3514   -0.8852 O.3       1 <0>        -0.2933
     31 H1          1.0042    1.8801    0.0026 H         1 <0>         0.0838
     32 H2         -0.5455    1.8639   -0.8728 H         1 <0>         0.0944
     33 H3         -0.5286    1.8543    0.9071 H         1 <0>         0.0938
     34 H4         -0.0670   -4.6619   -0.0326 H         1 <0>         0.1384
     35 H5          1.4008   -6.6354   -0.0508 H         1 <0>         0.1334
     36 H6          3.8450   -6.3565   -0.0513 H         1 <0>         0.1297
     37 H7          4.8357   -4.1050   -0.0321 H         1 <0>         0.1319
     38 H8          3.3858   -2.1181   -0.0249 H         1 <0>         0.1306
     39 H9         -3.1156   -1.1316    0.5243 H         1 <0>         0.0868
     40 H10        -2.6018    0.5726    0.5316 H         1 <0>         0.0865
     41 H11        -4.1510    0.1181   -3.6472 H         1 <0>         0.1415
     42 H12        -6.5130    0.8308   -3.9296 H         1 <0>         0.1419
     43 H13        -6.8717    0.9409    0.3235 H         1 <0>         0.1592
     44 H14        -8.5595    1.9867   -1.0755 H         1 <0>         0.0777
     45 H15        -8.4191    1.9438   -2.8494 H         1 <0>         0.0776
     46 H16        -8.9268   -0.4833   -2.8308 H         1 <0>         0.0727
     47 H17        -9.0672   -0.4403   -1.0569 H         1 <0>         0.0774
     48 H18       -10.9228    1.1938   -1.2433 H         1 <0>         0.0825
     49 H19       -10.7825    1.1509   -3.0172 H         1 <0>         0.1024
     50 H20       -11.2597   -1.3219   -2.9531 H         1 <0>         0.1531
     51 H21       -14.5774   -0.5985   -1.0037 H         1 <0>         0.4439
@<TRIPOS>BOND
     1    1    2 1
     2    1   31 1
     3    1   32 1
     4    1   33 1
     5    2    6 1
     6    2    3 2
     7    3    4 1
     8    3   13 1
     9    4    5 2
    10    5    6 1
    11    5    7 1
    12    7   12 ar
    13    7    8 ar
    14    8    9 ar
    15    8   34 1
    16    9   10 ar
    17    9   35 1
    18   10   11 ar
    19   10   36 1
    20   11   12 ar
    21   11   37 1
    22   12   38 1
    23   13   14 1
    24   13   39 1
    25   13   40 1
    26   14   15 1
    27   15   20 ar
    28   15   16 ar
    29   16   17 ar
    30   16   41 1
    31   17   18 ar
    32   17   42 1
    33   18   19 ar
    34   18   21 1
    35   19   20 ar
    36   19   43 1
    37   21   22 1
    38   21   44 1
    39   21   45 1
    40   22   23 1
    41   22   46 1
    42   22   47 1
    43   23   24 1
    44   23   48 1
    45   23   49 1
    46   24   30 1
    47   24   25 1
    48   24   50 1
    49   25   26 2
    50   25   27 am
    51   27   28 am
    52   27   51 1
    53   28   29 2
    54   28   30 1
@<TRIPOS>MOLECULE
CHEMBL441235__1
   51    54     0     0     0
SMALL
USER_CHARGES

@<TRIPOS>ATOM
      1 C1         -0.0184    1.5028    0.0103 C.3       1 <0>        -0.0745
      2 C2          0.0021   -0.0041    0.0020 C.2       1 <0>        -0.0083
      3 C3         -1.0705   -0.8164    0.0025 C.2       1 <0>        -0.0225
      4 N1         -0.6270   -2.0826   -0.0064 N.2       1 <0>        -0.4529
      5 C4          0.6851   -2.0676   -0.0123 C.2       1 <0>         0.2349
      6 O1          1.0981   -0.7883   -0.0131 O.3       1 <0>        -0.1909
      7 C5          1.5619   -3.2577   -0.0227 C.ar      1 <0>        -0.0205
      8 C6          1.0059   -4.5378   -0.0330 C.ar      1 <0>        -0.0701
      9 C7          1.8298   -5.6443   -0.0432 C.ar      1 <0>        -0.1205
     10 C8          3.2044   -5.4871   -0.0433 C.ar      1 <0>        -0.0987
     11 C9          3.7620   -4.2209   -0.0327 C.ar      1 <0>        -0.1204
     12 C10         2.9493   -3.1060   -0.0282 C.ar      1 <0>        -0.0892
     13 C11        -2.5133   -0.3814    0.0119 C.3       1 <0>         0.1610
     14 O2         -2.9758   -0.2362   -1.3324 O.3       1 <0>        -0.3006
     15 C12        -4.2644    0.1531   -1.5018 C.ar      1 <0>         0.3215
     16 C13        -4.7738    0.3061   -2.7851 C.ar      1 <0>        -0.1851
     17 C14        -6.0898    0.7032   -2.9442 C.ar      1 <0>        -0.0352
     18 C15        -6.8536    0.9343   -1.8081 C.ar      1 <0>        -0.1741
     19 C16        -6.2818    0.7624   -0.5634 C.ar      1 <0>         0.1447
     20 N2         -5.0251    0.3779   -0.4436 N.ar      1 <0>        -0.5385
     21 C17        -8.2913    1.3686   -1.9324 C.3       1 <0>        -0.0697
     22 C18        -9.1950    0.1348   -1.9740 C.3       1 <0>        -0.1154
     23 C19       -10.6547    0.5757   -2.1002 C.3       1 <0>        -0.1200
     24 C20       -11.5584   -0.6581   -2.1418 C.3       1 <0>         0.0394
     25 C21       -13.0135   -0.2473   -2.2394 C.2       1 <0>         0.5070
     26 O3        -13.6460    0.4083   -1.4394 O.2       1 <0>        -0.4439
     27 N3        -13.4569   -0.7636   -3.4038 N.am      1 <0>        -0.6854
     28 C22       -12.4792   -1.4309   -4.0303 C.2       1 <0>         0.6503
     29 O4        -12.6194   -1.9907   -5.0991 O.2       1 <0>        -0.4686
     30 O5        -11.3270   -1.4109   -3.3421 O.3       1 <0>        -0.2935
     31 H1          1.0042    1.8801    0.0026 H         1 <0>         0.0839
     32 H2         -0.5455    1.8639   -0.8728 H         1 <0>         0.0944
     33 H3         -0.5286    1.8543    0.9071 H         1 <0>         0.0938
     34 H4         -0.0670   -4.6619   -0.0326 H         1 <0>         0.1383
     35 H5          1.4008   -6.6354   -0.0508 H         1 <0>         0.1334
     36 H6          3.8450   -6.3565   -0.0513 H         1 <0>         0.1297
     37 H7          4.8357   -4.1050   -0.0321 H         1 <0>         0.1319
     38 H8          3.3858   -2.1181   -0.0249 H         1 <0>         0.1306
     39 H9         -3.1156   -1.1316    0.5243 H         1 <0>         0.0866
     40 H10        -2.6018    0.5726    0.5316 H         1 <0>         0.0864
     41 H11        -4.1510    0.1181   -3.6472 H         1 <0>         0.1417
     42 H12        -6.5130    0.8308   -3.9296 H         1 <0>         0.1418
     43 H13        -6.8717    0.9409    0.3235 H         1 <0>         0.1593
     44 H14        -8.5595    1.9867   -1.0755 H         1 <0>         0.0787
     45 H15        -8.4191    1.9438   -2.8494 H         1 <0>         0.0765
     46 H16        -8.9268   -0.4833   -2.8308 H         1 <0>         0.0767
     47 H17        -9.0672   -0.4403   -1.0569 H         1 <0>         0.0734
     48 H18       -10.9228    1.1938   -1.2433 H         1 <0>         0.1029
     49 H19       -10.7825    1.1509   -3.0172 H         1 <0>         0.0820
     50 H20       -11.3934   -1.2810   -1.2626 H         1 <0>         0.1535
     51 H21       -14.3609   -0.6653   -3.7414 H         1 <0>         0.4439
@<TRIPOS>BOND
     1    1    2 1
     2    1   31 1
     3    1   32 1
     4    1   33 1
     5    2    6 1
     6    2    3 2
     7    3    4 1
     8    3   13 1
     9    4    5 2
    10    5    6 1
    11    5    7 1
    12    7   12 ar
    13    7    8 ar
    14    8    9 ar
    15    8   34 1
    16    9   10 ar
    17    9   35 1
    18   10   11 ar
    19   10   36 1
    20   11   12 ar
    21   11   37 1
    22   12   38 1
    23   13   14 1
    24   13   39 1
    25   13   40 1
    26   14   15 1
    27   15   20 ar
    28   15   16 ar
    29   16   17 ar
    30   16   41 1
    31   17   18 ar
    32   17   42 1
    33   18   19 ar
    34   18   21 1
    35   19   20 ar
    36   19   43 1
    37   21   22 1
    38   21   44 1
    39   21   45 1
    40   22   23 1
    41   22   46 1
    42   22   47 1
    43   23   24 1
    44   23   48 1
    45   23   49 1
    46   24   30 1
    47   24   25 1
    48   24   50 1
    49   25   26 2
    50   25   27 am
    51   27   28 am
    52   27   51 1
    53   28   29 2
    54   28   30 1
@<TRIPOS>MOLECULE
CHEMBL1715
   45    47     0     0     0
SMALL
USER_CHARGES

@<TRIPOS>ATOM
      1 C1         -0.0187    1.5258    0.0104 C.3       1 <0>        -0.1485
      2 C2          0.0021   -0.0041    0.0020 C.3       1 <0>        -0.0825
      3 C3          0.7309   -0.5033    1.2229 C.ar      1 <0>        -0.1336
      4 C4          2.1012   -0.7131    1.1857 C.ar      1 <0>        -0.0712
      5 C5          2.7296   -1.1730    2.3326 C.ar      1 <0>        -0.1598
      6 C6          1.9749   -1.4055    3.4671 C.ar      1 <0>         0.1216
      7 N1          0.6732   -1.1952    3.4659 N.ar      1 <0>        -0.4787
      8 C7          0.0432   -0.7523    2.3953 C.ar      1 <0>         0.1058
      9 C8          2.6474   -1.9055    4.7195 C.3       1 <0>        -0.0660
     10 C9          2.3256   -0.9641    5.8818 C.3       1 <0>         0.0690
     11 O1          2.9634   -1.4382    7.0695 O.3       1 <0>        -0.3149
     12 C10         2.7775   -0.7106    8.2021 C.ar      1 <0>         0.1401
     13 C11         1.9927    0.4330    8.1724 C.ar      1 <0>        -0.2078
     14 C12         1.8049    1.1706    9.3252 C.ar      1 <0>        -0.0664
     15 C13         2.3988    0.7703   10.5079 C.ar      1 <0>        -0.1385
     16 C14         3.1818   -0.3688   10.5401 C.ar      1 <0>        -0.0606
     17 C15         3.3676   -1.1133    9.3914 C.ar      1 <0>        -0.1500
     18 C16         2.1927    1.5771   11.7639 C.3       1 <0>        -0.0488
     19 C17         0.9588    1.0595   12.5059 C.3       1 <0>        -0.0720
     20 C18         0.7549    1.7957   13.8226 C.2       1 <0>         0.5304
     21 O2          0.5407    2.9880   13.8720 O.2       1 <0>        -0.4586
     22 N2          0.8270    1.0449   14.9088 N.am      1 <0>        -0.6902
     23 C19         1.0631   -0.2799   14.8807 C.2       1 <0>         0.5597
     24 O3          1.1459   -1.0468   15.8204 O.2       1 <0>        -0.4174
     25 S1          1.2257   -0.6485   13.1398 S.3       1 <0>        -0.1389
     26 H1          1.0039    1.9031    0.0027 H         1 <0>         0.0554
     27 H2         -0.5459    1.8868   -0.8726 H         1 <0>         0.0622
     28 H3         -0.5289    1.8773    0.9072 H         1 <0>         0.0567
     29 H4         -1.0205   -0.3814    0.0098 H         1 <0>         0.0770
     30 H5          0.5123   -0.3556   -0.8948 H         1 <0>         0.0752
     31 H6          2.6653   -0.5231    0.2846 H         1 <0>         0.1359
     32 H7          3.7954   -1.3478    2.3395 H         1 <0>         0.1372
     33 H8         -1.0234   -0.5868    2.4338 H         1 <0>         0.1563
     34 H9          2.2846   -2.9068    4.9518 H         1 <0>         0.0953
     35 H10         3.7260   -1.9367    4.5651 H         1 <0>         0.0913
     36 H11         2.6885    0.0372    5.6496 H         1 <0>         0.0610
     37 H12         1.2471   -0.9330    6.0363 H         1 <0>         0.0759
     38 H13         1.5292    0.7465    7.2487 H         1 <0>         0.1292
     39 H14         1.1940    2.0610    9.3026 H         1 <0>         0.1274
     40 H15         3.6449   -0.6793   11.4651 H         1 <0>         0.1349
     41 H16         3.9757   -2.0055    9.4180 H         1 <0>         0.1335
     42 H17         3.0689    1.4815   12.4051 H         1 <0>         0.0897
     43 H18         2.0464    2.6252   11.5026 H         1 <0>         0.1048
     44 H19         0.0698    1.1150   11.8777 H         1 <0>         0.1609
     45 H20         0.7036    1.4714   15.7712 H         1 <0>         0.4179
@<TRIPOS>BOND
     1    1    2 1
     2    1   26 1
     3    1   27 1
     4    1   28 1
     5    2    3 1
     6    2   29 1
     7    2   30 1
     8    3    8 ar
     9    3    4 ar
    10    4    5 ar
    11    4   31 1
    12    5    6 ar
    13    5   32 1
    14    6    7 ar
    15    6    9 1
    16    7    8 ar
    17    8   33 1
    18    9   10 1
    19    9   34 1
    20    9   35 1
    21   10   11 1
    22   10   36 1
    23   10   37 1
    24   11   12 1
    25   12   17 ar
    26   12   13 ar
    27   13   14 ar
    28   13   38 1
    29   14   15 ar
    30   14   39 1
    31   15   16 ar
    32   15   18 1
    33   16   17 ar
    34   16   40 1
    35   17   41 1
    36   18   19 1
    37   18   42 1
    38   18   43 1
    39   19   25 1
    40   19   20 1
    41   19   44 1
    42   20   21 2
    43   20   22 am
    44   22   23 am
    45   22   45 1
    46   23   24 2
    47   23   25 1
@<TRIPOS>MOLECULE
CHEMBL1715__1
   45    47     0     0     0
SMALL
USER_CHARGES

@<TRIPOS>ATOM
      1 C1         -0.0187    1.5258    0.0104 C.3       1 <0>        -0.1485
      2 C2          0.0021   -0.0041    0.0020 C.3       1 <0>        -0.0824
      3 C3          0.7309   -0.5033    1.2229 C.ar      1 <0>        -0.1336
      4 C4          2.1012   -0.7131    1.1857 C.ar      1 <0>        -0.0713
      5 C5          2.7296   -1.1730    2.3326 C.ar      1 <0>        -0.1599
      6 C6          1.9749   -1.4055    3.4671 C.ar      1 <0>         0.1215
      7 N1          0.6732   -1.1952    3.4659 N.ar      1 <0>        -0.4783
      8 C7          0.0432   -0.7523    2.3953 C.ar      1 <0>         0.1060
      9 C8          2.6474   -1.9055    4.7195 C.3       1 <0>        -0.0657
     10 C9          2.3256   -0.9641    5.8818 C.3       1 <0>         0.0687
     11 O1          2.9634   -1.4382    7.0695 O.3       1 <0>        -0.3152
     12 C10         2.7775   -0.7106    8.2021 C.ar      1 <0>         0.1401
     13 C11         1.9927    0.4330    8.1724 C.ar      1 <0>        -0.2060
     14 C12         1.8049    1.1706    9.3252 C.ar      1 <0>        -0.0589
     15 C13         2.3988    0.7703   10.5079 C.ar      1 <0>        -0.1388
     16 C14         3.1818   -0.3688   10.5401 C.ar      1 <0>        -0.0676
     17 C15         3.3676   -1.1133    9.3914 C.ar      1 <0>        -0.1520
     18 C16         2.1927    1.5771   11.7639 C.3       1 <0>        -0.0488
     19 C17         0.9588    1.0595   12.5059 C.3       1 <0>        -0.0716
     20 C18         0.6659    1.8952   13.7441 C.2       1 <0>         0.5304
     21 O2          1.4448    1.9776   14.6694 O.2       1 <0>        -0.4582
     22 N2         -0.4966    2.5254   13.7404 N.am      1 <0>        -0.6902
     23 C19        -1.3781    2.4506   12.7260 C.2       1 <0>         0.5599
     24 O3         -2.4632    2.9911   12.6342 O.2       1 <0>        -0.4177
     25 S1         -0.5808    1.3721   11.5454 S.3       1 <0>        -0.1406
     26 H1          1.0039    1.9031    0.0027 H         1 <0>         0.0553
     27 H2         -0.5459    1.8868   -0.8726 H         1 <0>         0.0621
     28 H3         -0.5289    1.8773    0.9072 H         1 <0>         0.0568
     29 H4         -1.0205   -0.3814    0.0098 H         1 <0>         0.0771
     30 H5          0.5123   -0.3556   -0.8948 H         1 <0>         0.0751
     31 H6          2.6653   -0.5231    0.2846 H         1 <0>         0.1358
     32 H7          3.7954   -1.3478    2.3395 H         1 <0>         0.1371
     33 H8         -1.0234   -0.5868    2.4338 H         1 <0>         0.1565
     34 H9          2.2846   -2.9068    4.9518 H         1 <0>         0.0951
     35 H10         3.7260   -1.9367    4.5651 H         1 <0>         0.0911
     36 H11         2.6885    0.0372    5.6496 H         1 <0>         0.0612
     37 H12         1.2471   -0.9330    6.0363 H         1 <0>         0.0764
     38 H13         1.5292    0.7465    7.2487 H         1 <0>         0.1295
     39 H14         1.1940    2.0610    9.3026 H         1 <0>         0.1301
     40 H15         3.6449   -0.6793   11.4651 H         1 <0>         0.1323
     41 H16         3.9757   -2.0055    9.4180 H         1 <0>         0.1330
     42 H17         3.0689    1.4815   12.4051 H         1 <0>         0.1058
     43 H18         2.0464    2.6252   11.5026 H         1 <0>         0.0887
     44 H19         1.0635    0.0035   12.7548 H         1 <0>         0.1617
     45 H20        -0.7264    3.0701   14.5095 H         1 <0>         0.4179
@<TRIPOS>BOND
     1    1    2 1
     2    1   26 1
     3    1   27 1
     4    1   28 1
     5    2    3 1
     6    2   29 1
     7    2   30 1
     8    3    8 ar
     9    3    4 ar
    10    4    5 ar
    11    4   31 1
    12    5    6 ar
    13    5   32 1
    14    6    7 ar
    15    6    9 1
    16    7    8 ar
    17    8   33 1
    18    9   10 1
    19    9   34 1
    20    9   35 1
    21   10   11 1
    22   10   36 1
    23   10   37 1
    24   11   12 1
    25   12   17 ar
    26   12   13 ar
    27   13   14 ar
    28   13   38 1
    29   14   15 ar
    30   14   39 1
    31   15   16 ar
    32   15   18 1
    33   16   17 ar
    34   16   40 1
    35   17   41 1
    36   18   19 1
    37   18   42 1
    38   18   43 1
    39   19   25 1
    40   19   20 1
    41   19   44 1
    42   20   21 2
    43   20   22 am
    44   22   23 am
    45   22   45 1
    46   23   24 2
    47   23   25 1
@<TRIPOS>MOLECULE
CHEMBL341704
   48    50     0     0     0
SMALL
USER_CHARGES

@<TRIPOS>ATOM
      1 C1          0.1309    1.5933   -0.0074 C.3       1 <0>        -0.1425
      2 C2          0.1067    0.0635   -0.0220 C.3       1 <0>        -0.0214
      3 C3          0.8249   -0.4452   -1.2743 C.3       1 <0>        -0.1525
      4 C4          1.0482   -1.9552   -1.1213 C.3       1 <0>         0.0563
      5 O1          1.9400   -2.1697   -0.0267 O.3       1 <0>        -0.3079
      6 C5          1.6695   -1.5407    1.1450 C.ar      1 <0>         0.1779
      7 C6          0.8005   -0.4611    1.2098 C.ar      1 <0>        -0.1619
      8 C7          0.5553    0.1548    2.4203 C.ar      1 <0>        -0.0097
      9 C8          1.1773   -0.3070    3.5824 C.ar      1 <0>        -0.1653
     10 C9          2.0500   -1.3968    3.5138 C.ar      1 <0>        -0.0261
     11 C10         2.2908   -2.0044    2.3038 C.ar      1 <0>        -0.1628
     12 C11         0.9149    0.3519    4.8752 C.2       1 <0>         0.5162
     13 O2          0.1560    1.2993    4.9313 O.2       1 <0>        -0.4890
     14 O3          1.5168   -0.0965    5.9944 O.3       1 <0>        -0.2950
     15 C12         1.3268    0.6017    7.1444 C.ar      1 <0>         0.1121
     16 C13         0.1330    0.4737    7.8428 C.ar      1 <0>        -0.1224
     17 C14        -0.0640    1.1796    9.0099 C.ar      1 <0>        -0.0648
     18 C15         0.9395    2.0251    9.4903 C.ar      1 <0>        -0.0657
     19 C16         2.1389    2.1506    8.7843 C.ar      1 <0>        -0.0604
     20 C17         2.3291    1.4368    7.6210 C.ar      1 <0>        -0.1231
     21 C18         0.7333    2.7827   10.7382 C.2       1 <0>         0.1566
     22 N1          1.6666    3.5674   11.1827 N.2       1 <0>        -0.2865
     23 N2          1.4706    4.2874   12.3685 N.pl3     1 <0>        -0.5377
     24 C19         2.4398    5.1022   12.8301 C.2       1 <0>         0.6033
     25 N3          3.5976    5.2245   12.1510 N.pl3     1 <0>        -0.7836
     26 S1          2.2004    5.9820   14.2791 S.2       1 <0>        -0.6153
     27 C20        -1.3440   -0.4226   -0.0353 C.3       1 <0>        -0.1436
     28 H1          1.1642    1.9402    0.0036 H         1 <0>         0.0601
     29 H2         -0.3704    1.9732   -0.8976 H         1 <0>         0.0648
     30 H3         -0.3837    1.9563    0.8823 H         1 <0>         0.0632
     31 H4          0.2110   -0.2519   -2.1540 H         1 <0>         0.0908
     32 H5          1.7854    0.0596   -1.3777 H         1 <0>         0.0813
     33 H6          0.0970   -2.4487   -0.9220 H         1 <0>         0.0717
     34 H7          1.4859   -2.3561   -2.0354 H         1 <0>         0.1132
     35 H8         -0.1198    0.9964    2.4691 H         1 <0>         0.1424
     36 H9          2.5340   -1.7603    4.4082 H         1 <0>         0.1464
     37 H10         2.9649   -2.8465    2.2510 H         1 <0>         0.1428
     38 H11        -0.6421   -0.1797    7.4705 H         1 <0>         0.1372
     39 H12        -0.9926    1.0798    9.5521 H         1 <0>         0.1413
     40 H13         2.9172    2.8029    9.1520 H         1 <0>         0.1412
     41 H14         3.2575    1.5298    7.0770 H         1 <0>         0.1392
     42 H15        -0.1944    2.6847   11.2824 H         1 <0>         0.1336
     43 H16         3.7332    4.7261   11.3300 H         1 <0>         0.4081
     44 H17         4.2951    5.8110   12.4832 H         1 <0>         0.4329
     45 H18        -1.8464   -0.0424   -0.9247 H         1 <0>         0.0654
     46 H19        -1.3619   -1.5124   -0.0458 H         1 <0>         0.0572
     47 H20        -1.8571   -0.0593    0.8551 H         1 <0>         0.0622
     48 H21         0.6374    4.1994   12.8572 H         1 <0>         0.4196
@<TRIPOS>BOND
     1    1    2 1
     2    1   28 1
     3    1   29 1
     4    1   30 1
     5    2    7 1
     6    2    3 1
     7    2   27 1
     8    3    4 1
     9    3   31 1
    10    3   32 1
    11    4    5 1
    12    4   33 1
    13    4   34 1
    14    5    6 1
    15    6   11 ar
    16    6    7 ar
    17    7    8 ar
    18    8    9 ar
    19    8   35 1
    20    9   10 ar
    21    9   12 1
    22   10   11 ar
    23   10   36 1
    24   11   37 1
    25   12   13 2
    26   12   14 1
    27   14   15 1
    28   15   20 ar
    29   15   16 ar
    30   16   17 ar
    31   16   38 1
    32   17   18 ar
    33   17   39 1
    34   18   19 ar
    35   18   21 1
    36   19   20 ar
    37   19   40 1
    38   20   41 1
    39   21   22 2
    40   21   42 1
    41   22   23 1
    42   23   24 1
    43   23   48 1
    44   24   25 1
    45   24   26 2
    46   25   43 1
    47   25   44 1
    48   27   45 1
    49   27   46 1
    50   27   47 1
@<TRIPOS>MOLECULE
CHEMBL204725
   68    69     0     0     0
SMALL
USER_CHARGES

@<TRIPOS>ATOM
      1 C1         -0.0910    1.3254   -0.6023 C.3       1 <0>        -0.1552
      2 C2         -0.0398   -0.1812   -0.3406 C.3       1 <0>        -0.1194
      3 C3          0.8912   -0.4623    0.8405 C.3       1 <0>        -0.1425
      4 C4          0.9423   -1.9689    1.1022 C.3       1 <0>        -0.0136
      5 N1          1.8363   -2.2389    2.2362 N.4       1 <0>        -0.3227
      6 C5          1.9796   -3.6903    2.4120 C.3       1 <0>         0.0454
      7 C6          2.6734   -4.2759    1.2092 C.2       1 <0>        -0.2914
      8 C7          3.7805   -5.0056    1.3666 C.2       1 <0>         0.0067
      9 C8          4.4536   -5.5737    0.1998 C.2       1 <0>        -0.1415
     10 C9          5.5772   -6.3144    0.3595 C.2       1 <0>        -0.1172
     11 C10         6.3139   -6.7339   -0.7716 C.2       1 <0>         0.4888
     12 O1          6.0010   -6.3379   -1.8880 O.co2     1 <0>        -0.6734
     13 O2          7.2655   -7.4937   -0.6356 O.co2     1 <0>        -0.6865
     14 C11         3.8980   -5.3357   -1.1807 C.3       1 <0>        -0.0927
     15 C12         1.2966   -1.6798    3.3983 C.ar      1 <0>        -0.0188
     16 C13         0.0574   -2.0914    3.8492 C.ar      1 <0>        -0.0978
     17 C14        -0.4769   -1.5393    4.9980 C.ar      1 <0>        -0.0428
     18 C15         0.2294   -0.5769    5.6934 C.ar      1 <0>        -0.0620
     19 C16         1.4713   -0.1627    5.2428 C.ar      1 <0>        -0.0526
     20 C17         2.0084   -0.7193    4.0968 C.ar      1 <0>        -0.0792
     21 C18         3.3666   -0.1107    3.8206 C.3       1 <0>        -0.0995
     22 C19         3.4127    1.1768    4.6705 C.3       1 <0>        -0.1098
     23 C20         2.4309    0.8595    5.8133 C.3       1 <0>        -0.0274
     24 C21         3.1948    0.2668    6.9991 C.3       1 <0>        -0.1406
     25 C22         1.6729    2.1170    6.2437 C.3       1 <0>        -0.1429
     26 C23        -1.8288   -1.9863    5.4915 C.3       1 <0>        -0.0299
     27 C24        -2.3904   -3.0506    4.5465 C.3       1 <0>        -0.1512
     28 C25        -1.6898   -2.5746    6.8970 C.3       1 <0>        -0.1437
     29 C26        -2.7789   -0.7878    5.5319 C.3       1 <0>        -0.1428
     30 H1          0.9103    1.6880   -0.8346 H         1 <0>         0.0587
     31 H2         -0.7543    1.5257   -1.4437 H         1 <0>         0.0642
     32 H3         -0.4654    1.8358    0.2850 H         1 <0>         0.0557
     33 H4         -1.0412   -0.5438   -0.1083 H         1 <0>         0.0701
     34 H5          0.3346   -0.6916   -1.2280 H         1 <0>         0.0746
     35 H6          1.8925   -0.0997    0.6082 H         1 <0>         0.0828
     36 H7          0.5168    0.0481    1.7278 H         1 <0>         0.0840
     37 H8         -0.0590   -2.3315    1.3345 H         1 <0>         0.1251
     38 H9          1.3168   -2.4793    0.2148 H         1 <0>         0.1374
     39 H10         2.5701   -3.8914    3.3058 H         1 <0>         0.1244
     40 H11         0.9936   -4.1425    2.5186 H         1 <0>         0.1268
     41 H12         2.2753   -4.1053    0.2199 H         1 <0>         0.1392
     42 H13         4.1786   -5.1762    2.3560 H         1 <0>         0.1179
     43 H14         5.9097   -6.5841    1.3511 H         1 <0>         0.1045
     44 H15         4.4061   -4.4852   -1.6352 H         1 <0>         0.0639
     45 H16         4.0555   -6.2231   -1.7937 H         1 <0>         0.0971
     46 H17         2.8304   -5.1266   -1.1116 H         1 <0>         0.0287
     47 H18        -0.4935   -2.8437    3.3042 H         1 <0>         0.1475
     48 H19        -0.1887   -0.1460    6.5911 H         1 <0>         0.1374
     49 H20         4.1573   -0.7952    4.1278 H         1 <0>         0.0973
     50 H21         3.4646    0.1310    2.7623 H         1 <0>         0.0823
     51 H22         4.4180    1.3524    5.0535 H         1 <0>         0.0910
     52 H23         3.0609    2.0334    4.0956 H         1 <0>         0.0815
     53 H24         3.7590   -0.6053    6.6686 H         1 <0>         0.0590
     54 H25         3.8810    1.0133    7.3990 H         1 <0>         0.0696
     55 H26         2.4885   -0.0299    7.7746 H         1 <0>         0.0607
     56 H27         0.9378    1.8554    7.0048 H         1 <0>         0.0606
     57 H28         2.3759    2.8431    6.6519 H         1 <0>         0.0679
     58 H29         1.1651    2.5482    5.3810 H         1 <0>         0.0599
     59 H30        -1.7135   -3.9045    4.5177 H         1 <0>         0.0601
     60 H31        -3.3682   -3.3739    4.9034 H         1 <0>         0.0698
     61 H32        -2.4894   -2.6315    3.5451 H         1 <0>         0.0591
     62 H33        -1.2898   -1.8164    7.5703 H         1 <0>         0.0598
     63 H34        -2.6677   -2.8979    7.2539 H         1 <0>         0.0679
     64 H35        -1.0130   -3.4285    6.8682 H         1 <0>         0.0596
     65 H36        -2.8780   -0.3687    4.5306 H         1 <0>         0.0587
     66 H37        -3.7568   -1.1111    5.8888 H         1 <0>         0.0677
     67 H38        -2.3789   -0.0296    6.2051 H         1 <0>         0.0598
     68 H39         2.7413   -1.8310    2.0556 H         1 <0>         0.4246
@<TRIPOS>BOND
     1    1    2 1
     2    1   30 1
     3    1   31 1
     4    1   32 1
     5    2    3 1
     6    2   33 1
     7    2   34 1
     8    3    4 1
     9    3   35 1
    10    3   36 1
    11    4    5 1
    12    4   37 1
    13    4   38 1
    14    5    6 1
    15    5   15 1
    16    5   68 1
    17    6    7 1
    18    6   39 1
    19    6   40 1
    20    7    8 2
    21    7   41 1
    22    8    9 1
    23    8   42 1
    24    9   10 2
    25    9   14 1
    26   10   11 1
    27   10   43 1
    28   11   12 2
    29   11   13 1
    30   14   44 1
    31   14   45 1
    32   14   46 1
    33   15   20 ar
    34   15   16 ar
    35   16   17 ar
    36   16   47 1
    37   17   18 ar
    38   17   26 1
    39   18   19 ar
    40   18   48 1
    41   19   23 1
    42   19   20 ar
    43   20   21 1
    44   21   22 1
    45   21   49 1
    46   21   50 1
    47   22   23 1
    48   22   51 1
    49   22   52 1
    50   23   24 1
    51   23   25 1
    52   24   53 1
    53   24   54 1
    54   24   55 1
    55   25   56 1
    56   25   57 1
    57   25   58 1
    58   26   27 1
    59   26   28 1
    60   26   29 1
    61   27   59 1
    62   27   60 1
    63   27   61 1
    64   28   62 1
    65   28   63 1
    66   28   64 1
    67   29   65 1
    68   29   66 1
    69   29   67 1
@<TRIPOS>MOLECULE
CHEMBL204725__1
   67    68     0     0     0
SMALL
USER_CHARGES

@<TRIPOS>ATOM
      1 C1         -0.3773    1.3374   -0.4539 C.3       1 <0>        -0.1504
      2 C2         -0.1902   -0.1676   -0.2518 C.3       1 <0>        -0.1232
      3 C3          0.3812   -0.7866   -1.5290 C.3       1 <0>        -0.1382
      4 C4          0.5684   -2.2915   -1.3269 C.3       1 <0>         0.1477
      5 N1          1.1154   -2.8842   -2.5499 N.pl3     1 <0>        -0.6698
      6 C5          2.5659   -2.9767   -2.7337 C.3       1 <0>         0.1802
      7 C6          3.0600   -4.2876   -2.1782 C.2       1 <0>        -0.1890
      8 C7          3.7655   -5.1167   -2.9513 C.2       1 <0>        -0.0959
      9 C8          4.2449   -6.3884   -2.4125 C.2       1 <0>        -0.0902
     10 C9          4.9610   -7.2299   -3.1971 C.2       1 <0>        -0.1842
     11 C10         5.2924   -8.5222   -2.7295 C.2       1 <0>         0.5001
     12 O1          4.8409   -8.9222   -1.6630 O.co2     1 <0>        -0.6860
     13 O2          6.0311   -9.2422   -3.3907 O.co2     1 <0>        -0.7065
     14 C11         3.9428   -6.7635   -0.9845 C.3       1 <0>        -0.0907
     15 C12         0.2541   -3.3611   -3.5406 C.ar      1 <0>         0.1860
     16 C13        -0.1663   -2.5167   -4.5593 C.ar      1 <0>        -0.1272
     17 C14        -1.0173   -2.9908   -5.5378 C.ar      1 <0>        -0.0726
     18 C15        -1.4492   -4.3030   -5.5018 C.ar      1 <0>        -0.1046
     19 C16        -1.0329   -5.1499   -4.4878 C.ar      1 <0>        -0.0781
     20 C17        -0.1772   -4.6833   -3.5090 C.ar      1 <0>        -0.0899
     21 C18         0.1321   -5.7930   -2.5272 C.3       1 <0>        -0.0735
     22 C19        -0.9593   -6.8582   -2.7649 C.3       1 <0>        -0.1146
     23 C20        -1.3601   -6.6053   -4.2300 C.3       1 <0>        -0.0235
     24 C21        -0.5371   -7.5060   -5.1532 C.3       1 <0>        -0.1362
     25 C22        -2.8551   -6.8578   -4.4350 C.3       1 <0>        -0.1348
     26 C23        -1.4757   -2.0770   -6.6449 C.3       1 <0>        -0.0247
     27 C24        -0.8575   -0.6909   -6.4510 C.3       1 <0>        -0.1415
     28 C25        -1.0337   -2.6483   -7.9937 C.3       1 <0>        -0.1381
     29 C26        -3.0012   -1.9638   -6.6141 C.3       1 <0>        -0.1365
     30 H1          0.5851    1.7960   -0.6809 H         1 <0>         0.0522
     31 H2         -1.0661    1.5100   -1.2809 H         1 <0>         0.0514
     32 H3         -0.7844    1.7784    0.4560 H         1 <0>         0.0509
     33 H4          0.4986   -0.3402    0.5752 H         1 <0>         0.0606
     34 H5         -1.1526   -0.6262   -0.0248 H         1 <0>         0.0591
     35 H6         -0.3076   -0.6139   -2.3560 H         1 <0>         0.0598
     36 H7          1.3436   -0.3280   -1.7560 H         1 <0>         0.0600
     37 H8          1.2571   -2.4642   -0.4999 H         1 <0>         0.0637
     38 H9         -0.3941   -2.7501   -1.0999 H         1 <0>         0.0579
     39 H10         2.8018   -2.9204   -3.7963 H         1 <0>         0.0616
     40 H11         3.0518   -2.1538   -2.2095 H         1 <0>         0.0688
     41 H12         2.8435   -4.5564   -1.1549 H         1 <0>         0.1125
     42 H13         3.9821   -4.8479   -3.9747 H         1 <0>         0.1026
     43 H14         5.2784   -6.9133   -4.1796 H         1 <0>         0.0936
     44 H15         3.0529   -7.3923   -0.9545 H         1 <0>         0.0595
     45 H16         4.7879   -7.3098   -0.5657 H         1 <0>         0.0893
     46 H17         3.7689   -5.8598   -0.4004 H         1 <0>         0.0283
     47 H18         0.1714   -1.4912   -4.5861 H         1 <0>         0.1239
     48 H19        -2.1154   -4.6702   -6.2685 H         1 <0>         0.1122
     49 H20         1.1186   -6.2111   -2.7274 H         1 <0>         0.0863
     50 H21         0.0793   -5.4190   -1.5048 H         1 <0>         0.0681
     51 H22        -0.5554   -7.8624   -2.6359 H         1 <0>         0.0777
     52 H23        -1.8111   -6.6942   -2.1049 H         1 <0>         0.0669
     53 H24         0.5246   -7.3419   -4.9689 H         1 <0>         0.0609
     54 H25        -0.7829   -8.5495   -4.9565 H         1 <0>         0.0591
     55 H26        -0.7665   -7.2683   -6.1919 H         1 <0>         0.0527
     56 H27        -3.1287   -6.6077   -5.4600 H         1 <0>         0.0534
     57 H28        -3.0755   -7.9084   -4.2462 H         1 <0>         0.0567
     58 H29        -3.4264   -6.2370   -3.7447 H         1 <0>         0.0539
     59 H30         0.2293   -0.7715   -6.4729 H         1 <0>         0.0578
     60 H31        -1.1890   -0.0299   -7.2518 H         1 <0>         0.0546
     61 H32        -1.1723   -0.2839   -5.4901 H         1 <0>         0.0568
     62 H33        -1.4742   -3.6358   -8.1318 H         1 <0>         0.0563
     63 H34        -1.3653   -1.9873   -8.7945 H         1 <0>         0.0550
     64 H35         0.0531   -2.7289   -8.0156 H         1 <0>         0.0564
     65 H36        -3.3160   -1.5568   -5.6533 H         1 <0>         0.0547
     66 H37        -3.3327   -1.3028   -7.4149 H         1 <0>         0.0548
     67 H38        -3.4416   -2.9513   -6.7523 H         1 <0>         0.0559
@<TRIPOS>BOND
     1    1    2 1
     2    1   30 1
     3    1   31 1
     4    1   32 1
     5    2    3 1
     6    2   33 1
     7    2   34 1
     8    3    4 1
     9    3   35 1
    10    3   36 1
    11    4    5 1
    12    4   37 1
    13    4   38 1
    14    5    6 1
    15    5   15 1
    16    6    7 1
    17    6   39 1
    18    6   40 1
    19    7    8 2
    20    7   41 1
    21    8    9 1
    22    8   42 1
    23    9   10 2
    24    9   14 1
    25   10   11 1
    26   10   43 1
    27   11   12 2
    28   11   13 1
    29   14   44 1
    30   14   45 1
    31   14   46 1
    32   15   20 ar
    33   15   16 ar
    34   16   17 ar
    35   16   47 1
    36   17   18 ar
    37   17   26 1
    38   18   19 ar
    39   18   48 1
    40   19   23 1
    41   19   20 ar
    42   20   21 1
    43   21   22 1
    44   21   49 1
    45   21   50 1
    46   22   23 1
    47   22   51 1
    48   22   52 1
    49   23   24 1
    50   23   25 1
    51   24   53 1
    52   24   54 1
    53   24   55 1
    54   25   56 1
    55   25   57 1
    56   25   58 1
    57   26   27 1
    58   26   28 1
    59   26   29 1
    60   27   59 1
    61   27   60 1
    62   27   61 1
    63   28   62 1
    64   28   63 1
    65   28   64 1
    66   29   65 1
    67   29   66 1
    68   29   67 1
@<TRIPOS>MOLECULE
CHEMBL113975
   55    58     0     0     0
SMALL
USER_CHARGES

@<TRIPOS>ATOM
      1 C1         -0.0187    1.5258    0.0104 C.3       1 <0>        -0.1378
      2 C2          0.0021   -0.0041    0.0020 C.3       1 <0>        -0.0227
      3 C3         -1.4328   -0.5271   -0.0149 C.3       1 <0>        -0.1123
      4 C4         -2.0769   -0.2161    1.3413 C.3       1 <0>        -0.1100
      5 C5         -1.4248   -1.1043    2.3990 C.3       1 <0>        -0.0209
      6 C6          0.0761   -0.9993    2.3263 C.ar      1 <0>        -0.0656
      7 C7          0.7315   -0.4976    1.2240 C.ar      1 <0>        -0.0576
      8 C8          2.1187   -0.4341    1.2187 C.ar      1 <0>        -0.1191
      9 C9          2.8446   -0.8662    2.3097 C.ar      1 <0>        -0.0909
     10 C10         2.1866   -1.3661    3.4176 C.ar      1 <0>        -0.0664
     11 C11         0.8084   -1.4318    3.4241 C.ar      1 <0>        -0.0814
     12 C12         2.9717   -1.8382    4.6142 C.3       1 <0>         0.2716
     13 O1          2.2269   -1.6239    5.8357 O.3       1 <0>        -0.3596
     14 C13         3.0590   -1.3587    6.9723 C.3       1 <0>         0.0442
     15 C14         4.0832   -0.2428    6.5982 C.3       1 <0>        -0.0937
     16 S1          4.4635   -0.7887    4.8750 S.3       1 <0>        -0.3072
     17 C15         3.3557   -3.2876    4.4627 C.ar      1 <0>        -0.1155
     18 C16         2.5079   -4.2769    4.9291 C.ar      1 <0>        -0.1053
     19 C17         2.8530   -5.6054    4.7943 C.ar      1 <0>        -0.0889
     20 C18         4.0616   -5.9513    4.1846 C.ar      1 <0>        -0.1199
     21 C19         4.9124   -4.9470    3.7157 C.ar      1 <0>        -0.0869
     22 C20         4.5518   -3.6229    3.8528 C.ar      1 <0>        -0.1068
     23 C21         4.4380   -7.3702    4.0372 C.2       1 <0>         0.5187
     24 O2          3.6914   -8.2468    4.4490 O.co2     1 <0>        -0.6861
     25 O3          5.4966   -7.6697    3.5031 O.co2     1 <0>        -0.6857
     26 C22        -1.8409   -2.5577    2.1636 C.3       1 <0>        -0.1413
     27 C23        -1.8947   -0.6643    3.7869 C.3       1 <0>        -0.1419
     28 C24         0.7308   -0.4918   -1.2518 C.3       1 <0>        -0.1429
     29 H1          1.0039    1.9031    0.0027 H         1 <0>         0.0557
     30 H2         -0.5459    1.8868   -0.8726 H         1 <0>         0.0564
     31 H3         -0.5289    1.8773    0.9072 H         1 <0>         0.0575
     32 H4         -1.9937   -0.0346   -0.8092 H         1 <0>         0.0655
     33 H5         -1.4289   -1.6043   -0.1811 H         1 <0>         0.0701
     34 H6         -1.9161    0.8323    1.5924 H         1 <0>         0.0675
     35 H7         -3.1461   -0.4235    1.2962 H         1 <0>         0.0659
     36 H8          2.6337   -0.0437    0.3534 H         1 <0>         0.1235
     37 H9          3.9233   -0.8135    2.2981 H         1 <0>         0.1238
     38 H10         0.2950   -1.8229    4.2900 H         1 <0>         0.1278
     39 H11         2.4427   -1.0250    7.8071 H         1 <0>         0.1147
     40 H12         3.5930   -2.2660    7.2545 H         1 <0>         0.0746
     41 H13         3.6232    0.7452    6.6136 H         1 <0>         0.0997
     42 H14         4.9672   -0.2801    7.2349 H         1 <0>         0.1171
     43 H15         1.5740   -4.0080    5.4001 H         1 <0>         0.1170
     44 H16         2.1907   -6.3764    5.1593 H         1 <0>         0.1283
     45 H17         5.8482   -5.2072    3.2435 H         1 <0>         0.1287
     46 H18         5.2064   -2.8456    3.4869 H         1 <0>         0.1179
     47 H19        -1.5164   -2.8725    1.1718 H         1 <0>         0.0587
     48 H20        -1.3773   -3.1949    2.9168 H         1 <0>         0.0590
     49 H21        -2.9254   -2.6413    2.2347 H         1 <0>         0.0570
     50 H22        -2.9789   -0.7573    3.8498 H         1 <0>         0.0564
     51 H23        -1.4313   -1.2961    4.5447 H         1 <0>         0.0611
     52 H24        -1.6088    0.3740    3.9551 H         1 <0>         0.0547
     53 H25         1.7527   -0.1125   -1.2487 H         1 <0>         0.0589
     54 H26         0.7477   -1.5816   -1.2614 H         1 <0>         0.0582
     55 H27         0.2111   -0.1286   -2.1384 H         1 <0>         0.0566
@<TRIPOS>BOND
     1    1    2 1
     2    1   29 1
     3    1   30 1
     4    1   31 1
     5    2    7 1
     6    2    3 1
     7    2   28 1
     8    3    4 1
     9    3   32 1
    10    3   33 1
    11    4    5 1
    12    4   34 1
    13    4   35 1
    14    5    6 1
    15    5   26 1
    16    5   27 1
    17    6   11 ar
    18    6    7 ar
    19    7    8 ar
    20    8    9 ar
    21    8   36 1
    22    9   10 ar
    23    9   37 1
    24   10   11 ar
    25   10   12 1
    26   11   38 1
    27   12   16 1
    28   12   13 1
    29   12   17 1
    30   13   14 1
    31   14   15 1
    32   14   39 1
    33   14   40 1
    34   15   16 1
    35   15   41 1
    36   15   42 1
    37   17   22 ar
    38   17   18 ar
    39   18   19 ar
    40   18   43 1
    41   19   20 ar
    42   19   44 1
    43   20   21 ar
    44   20   23 1
    45   21   22 ar
    46   21   45 1
    47   22   46 1
    48   23   24 2
    49   23   25 1
    50   26   47 1
    51   26   48 1
    52   26   49 1
    53   27   50 1
    54   27   51 1
    55   27   52 1
    56   28   53 1
    57   28   54 1
    58   28   55 1
@<TRIPOS>MOLECULE
CHEMBL113975__1
   55    58     0     0     0
SMALL
USER_CHARGES

@<TRIPOS>ATOM
      1 C1         -0.0187    1.5258    0.0104 C.3       1 <0>        -0.1427
      2 C2          0.0021   -0.0041    0.0020 C.3       1 <0>        -0.0229
      3 C3          0.6935   -0.4914   -1.2697 C.3       1 <0>        -0.1126
      4 C4          0.8989   -2.0067   -1.1582 C.3       1 <0>        -0.1098
      5 C5          1.9621   -2.2714   -0.0941 C.3       1 <0>        -0.0214
      6 C6          1.6287   -1.5413    1.1806 C.ar      1 <0>        -0.0642
      7 C7          0.7315   -0.4976    1.2240 C.ar      1 <0>        -0.0570
      8 C8          0.4736    0.1376    2.4317 C.ar      1 <0>        -0.1219
      9 C9          1.1061   -0.2707    3.5879 C.ar      1 <0>        -0.0884
     10 C10         2.0037   -1.3209    3.5450 C.ar      1 <0>        -0.0923
     11 C11         2.2628   -1.9521    2.3458 C.ar      1 <0>        -0.0865
     12 C12         2.6974   -1.7746    4.8036 C.3       1 <0>         0.2718
     13 O1          1.8104   -1.6805    5.9426 O.3       1 <0>        -0.3563
     14 C13         1.0130   -2.8546    6.1432 C.3       1 <0>         0.0447
     15 C14         1.9422   -4.1074    6.1093 C.3       1 <0>        -0.0951
     16 S1          3.0610   -3.5797    4.7374 S.3       1 <0>        -0.3062
     17 C15         3.9582   -0.9818    5.0336 C.ar      1 <0>        -0.0909
     18 C16         5.1352   -1.3654    4.4152 C.ar      1 <0>        -0.1066
     19 C17         6.2931   -0.6449    4.6214 C.ar      1 <0>        -0.0857
     20 C18         6.2755    0.4749    5.4568 C.ar      1 <0>        -0.1204
     21 C19         5.0834    0.8565    6.0774 C.ar      1 <0>        -0.0886
     22 C20         3.9321    0.1295    5.8578 C.ar      1 <0>        -0.1030
     23 C21         7.5101    1.2505    5.6827 C.2       1 <0>         0.5191
     24 O2          8.5521    0.9137    5.1383 O.co2     1 <0>        -0.6860
     25 O3          7.4915    2.2302    6.4144 O.co2     1 <0>        -0.6862
     26 C22         3.3212   -1.7931   -0.6088 C.3       1 <0>        -0.1415
     27 C23         2.0307   -3.7736    0.1880 C.3       1 <0>        -0.1420
     28 C24        -1.4352   -0.5282    0.0264 C.3       1 <0>        -0.1376
     29 H1          1.0039    1.9031    0.0027 H         1 <0>         0.0583
     30 H2         -0.5459    1.8868   -0.8726 H         1 <0>         0.0566
     31 H3         -0.5289    1.8773    0.9072 H         1 <0>         0.0587
     32 H4          0.0697   -0.2681   -2.1352 H         1 <0>         0.0656
     33 H5          1.6591    0.0032   -1.3751 H         1 <0>         0.0702
     34 H6         -0.0373   -2.4838   -0.8684 H         1 <0>         0.0674
     35 H7          1.2323   -2.4035   -2.1171 H         1 <0>         0.0661
     36 H8         -0.2276    0.9584    2.4660 H         1 <0>         0.1227
     37 H9          0.9003    0.2283    4.5234 H         1 <0>         0.1251
     38 H10         2.9646   -2.7724    2.3130 H         1 <0>         0.1294
     39 H11         0.5124   -2.7963    7.1097 H         1 <0>         0.1145
     40 H12         0.2675   -2.9303    5.3516 H         1 <0>         0.0689
     41 H13         2.4861   -4.2288    7.0461 H         1 <0>         0.1026
     42 H14         1.3889   -5.0102    5.8507 H         1 <0>         0.1160
     43 H15         5.1473   -2.2312    3.7698 H         1 <0>         0.1143
     44 H16         7.2111   -0.9458    4.1387 H         1 <0>         0.1291
     45 H17         5.0625    1.7211    6.7244 H         1 <0>         0.1288
     46 H18         3.0088    0.4259    6.3335 H         1 <0>         0.1189
     47 H19         3.2741   -0.7248   -0.8203 H         1 <0>         0.0588
     48 H20         4.0829   -1.9804    0.1481 H         1 <0>         0.0584
     49 H21         3.5749   -2.3332   -1.5210 H         1 <0>         0.0575
     50 H22         2.2908   -4.3038   -0.7282 H         1 <0>         0.0565
     51 H23         2.7886   -3.9666    0.9472 H         1 <0>         0.0615
     52 H24         1.0614   -4.1207    0.5459 H         1 <0>         0.0549
     53 H25        -1.9692   -0.1652   -0.8518 H         1 <0>         0.0566
     54 H26        -1.4246   -1.6181    0.0205 H         1 <0>         0.0575
     55 H27        -1.9356   -0.1745    0.9278 H         1 <0>         0.0551
@<TRIPOS>BOND
     1    1    2 1
     2    1   29 1
     3    1   30 1
     4    1   31 1
     5    2    7 1
     6    2    3 1
     7    2   28 1
     8    3    4 1
     9    3   32 1
    10    3   33 1
    11    4    5 1
    12    4   34 1
    13    4   35 1
    14    5    6 1
    15    5   26 1
    16    5   27 1
    17    6   11 ar
    18    6    7 ar
    19    7    8 ar
    20    8    9 ar
    21    8   36 1
    22    9   10 ar
    23    9   37 1
    24   10   11 ar
    25   10   12 1
    26   11   38 1
    27   12   16 1
    28   12   13 1
    29   12   17 1
    30   13   14 1
    31   14   15 1
    32   14   39 1
    33   14   40 1
    34   15   16 1
    35   15   41 1
    36   15   42 1
    37   17   22 ar
    38   17   18 ar
    39   18   19 ar
    40   18   43 1
    41   19   20 ar
    42   19   44 1
    43   20   21 ar
    44   20   23 1
    45   21   22 ar
    46   21   45 1
    47   22   46 1
    48   23   24 2
    49   23   25 1
    50   26   47 1
    51   26   48 1
    52   26   49 1
    53   27   50 1
    54   27   51 1
    55   27   52 1
    56   28   53 1
    57   28   54 1
    58   28   55 1
@<TRIPOS>MOLECULE
CHEMBL246821
   55    57     0     0     0
SMALL
USER_CHARGES

@<TRIPOS>ATOM
      1 C1         -0.0187    1.5258    0.0104 C.3       1 <0>        -0.1714
      2 C2          0.0021   -0.0041    0.0020 C.3       1 <0>         0.0977
      3 N1         -1.3723   -0.5112    0.0124 N.am      1 <0>        -0.5480
      4 C3         -2.0112   -0.7515    1.2324 C.ar      1 <0>         0.1598
      5 C4         -1.4696   -0.2481    2.4065 C.ar      1 <0>        -0.1319
      6 C5         -2.1137   -0.4749    3.6194 C.ar      1 <0>        -0.0081
      7 C6         -3.3005   -1.2059    3.6481 C.ar      1 <0>        -0.0789
      8 C7         -3.8300   -1.7080    2.4765 C.ar      1 <0>        -0.0837
      9 C8         -3.1869   -1.4894    1.2722 C.ar      1 <0>        -0.1080
     10 C9         -3.7547   -2.0715    0.0026 C.3       1 <0>        -0.0179
     11 C10        -3.4577   -1.1366   -1.1699 C.3       1 <0>        -0.1306
     12 C11        -2.0070   -0.7349   -1.1511 C.2       1 <0>         0.5221
     13 O1         -1.4038   -0.6160   -2.1966 O.2       1 <0>        -0.5280
     14 C12        -3.1172   -3.4372   -0.2609 C.3       1 <0>        -0.1399
     15 C13        -5.2684   -2.2373    0.1509 C.3       1 <0>        -0.1412
     16 C14        -4.0049   -1.4481    4.9581 C.3       1 <0>        -0.1153
     17 C15        -1.5386    0.0594    4.8783 C.ar      1 <0>        -0.0493
     18 C16        -1.4576    1.4305    5.0789 C.ar      1 <0>        -0.0680
     19 C17        -0.9143    1.9270    6.2678 C.ar      1 <0>        -0.0398
     20 C18        -0.4550    1.0391    7.2499 C.ar      1 <0>        -0.0777
     21 C19        -0.5373   -0.3197    7.0458 C.ar      1 <0>        -0.1817
     22 C20        -1.0816   -0.8189    5.8694 C.ar      1 <0>         0.0975
     23 O2         -1.1657   -2.1591    5.6775 O.3       1 <0>        -0.3011
     24 C21        -0.6811   -2.9967    6.7290 C.3       1 <0>         0.6003
     25 F1         -1.4015   -2.7388    7.9002 F         1 <0>        -0.1654
     26 F2         -0.8426   -4.3387    6.3682 F         1 <0>        -0.1346
     27 F3          0.6752   -2.7327    6.9480 F         1 <0>        -0.1657
     28 C22        -0.8249    3.3766    6.4868 C.2       1 <0>        -0.1226
     29 C23        -0.2990    3.8558    7.6378 C.2       1 <0>        -0.1535
     30 C24        -0.2129    5.2510    7.8486 C.2       1 <0>         0.4981
     31 O3         -0.6145    6.0264    6.9891 O.co2     1 <0>        -0.6924
     32 O4          0.2633    5.6849    8.8908 O.co2     1 <0>        -0.6965
     33 H1          1.0039    1.9031    0.0027 H         1 <0>         0.0734
     34 H2         -0.5459    1.8868   -0.8726 H         1 <0>         0.0597
     35 H3         -0.5289    1.8773    0.9072 H         1 <0>         0.0636
     36 H4          0.5123   -0.3556   -0.8948 H         1 <0>         0.0924
     37 H5          0.5293   -0.3651    0.8851 H         1 <0>         0.0853
     38 H6         -0.5503    0.3180    2.3793 H         1 <0>         0.1336
     39 H7         -4.7495   -2.2740    2.5007 H         1 <0>         0.1330
     40 H8         -3.6817   -1.6474   -2.1064 H         1 <0>         0.1071
     41 H9         -4.0780   -0.2441   -1.0878 H         1 <0>         0.1029
     42 H10        -3.3316   -4.1053    0.5732 H         1 <0>         0.0643
     43 H11        -3.5273   -3.8586   -1.1787 H         1 <0>         0.0632
     44 H12        -2.0384   -3.3206   -0.3650 H         1 <0>         0.0532
     45 H13        -5.7235   -1.2652    0.3405 H         1 <0>         0.0629
     46 H14        -5.6795   -2.6582   -0.7667 H         1 <0>         0.0625
     47 H15        -5.4807   -2.9066    0.9846 H         1 <0>         0.0660
     48 H16        -4.7117   -0.6398    5.1455 H         1 <0>         0.0718
     49 H17        -4.5409   -2.3962    4.9125 H         1 <0>         0.0650
     50 H18        -3.2716   -1.4837    5.7638 H         1 <0>         0.0688
     51 H19        -1.8124    2.1113    4.3193 H         1 <0>         0.1404
     52 H20        -0.0352    1.4217    8.1685 H         1 <0>         0.1393
     53 H21        -0.1814   -1.0003    7.8051 H         1 <0>         0.1338
     54 H22        -1.1789    4.0601    5.7292 H         1 <0>         0.1321
     55 H23         0.0550    3.1724    8.3955 H         1 <0>         0.1012
@<TRIPOS>BOND
     1    1    2 1
     2    1   33 1
     3    1   34 1
     4    1   35 1
     5    2    3 1
     6    2   36 1
     7    2   37 1
     8    3   12 am
     9    3    4 1
    10    4    9 ar
    11    4    5 ar
    12    5    6 ar
    13    5   38 1
    14    6    7 ar
    15    6   17 1
    16    7    8 ar
    17    7   16 1
    18    8    9 ar
    19    8   39 1
    20    9   10 1
    21   10   11 1
    22   10   14 1
    23   10   15 1
    24   11   12 1
    25   11   40 1
    26   11   41 1
    27   12   13 2
    28   14   42 1
    29   14   43 1
    30   14   44 1
    31   15   45 1
    32   15   46 1
    33   15   47 1
    34   16   48 1
    35   16   49 1
    36   16   50 1
    37   17   22 ar
    38   17   18 ar
    39   18   19 ar
    40   18   51 1
    41   19   20 ar
    42   19   28 1
    43   20   21 ar
    44   20   52 1
    45   21   22 ar
    46   21   53 1
    47   22   23 1
    48   23   24 1
    49   24   25 1
    50   24   26 1
    51   24   27 1
    52   28   29 2
    53   28   54 1
    54   29   30 1
    55   29   55 1
    56   30   31 2
    57   30   32 1
@<TRIPOS>MOLECULE
CHEMBL247856
   53    55     0     0     0
SMALL
USER_CHARGES

@<TRIPOS>ATOM
      1 C1         -0.0187    1.5258    0.0104 C.3       1 <0>        -0.1721
      2 C2          0.0021   -0.0041    0.0020 C.3       1 <0>         0.1030
      3 N1         -1.3723   -0.5112    0.0124 N.am      1 <0>        -0.5462
      4 C3         -2.0307   -0.7586    1.2258 C.ar      1 <0>         0.0883
      5 C4         -1.5410   -0.2417    2.4113 C.ar      1 <0>        -0.1006
      6 C5         -2.2100   -0.5002    3.6067 C.ar      1 <0>        -0.0317
      7 C6         -3.3674   -1.2770    3.6021 C.ar      1 <0>        -0.0475
      8 C7         -3.8527   -1.7907    2.4160 C.ar      1 <0>        -0.1093
      9 C8         -3.1903   -1.5343    1.2268 C.ar      1 <0>         0.0881
     10 O1         -3.6613   -2.0325    0.0520 O.3       1 <0>        -0.2972
     11 C9         -3.4514   -1.2339   -1.1153 C.3       1 <0>         0.1045
     12 C10        -2.0267   -0.7422   -1.1465 C.2       1 <0>         0.4978
     13 O2         -1.4689   -0.5592   -2.2079 O.2       1 <0>        -0.5075
     14 C11        -4.3985   -0.0327   -1.0877 C.3       1 <0>        -0.1712
     15 C12        -3.7307   -2.0733   -2.3636 C.3       1 <0>        -0.1281
     16 C13        -4.0901   -1.5571    4.8945 C.3       1 <0>        -0.1167
     17 C14        -1.6904    0.0504    4.8824 C.ar      1 <0>        -0.0470
     18 C15        -1.6687    1.4227    5.0899 C.ar      1 <0>        -0.0683
     19 C16        -1.1775    1.9346    6.2950 C.ar      1 <0>        -0.0395
     20 C17        -0.7101    1.0609    7.2858 C.ar      1 <0>        -0.0774
     21 C18        -0.7339   -0.2993    7.0748 C.ar      1 <0>        -0.1810
     22 C19        -1.2260   -0.8139    5.8824 C.ar      1 <0>         0.0972
     23 O3         -1.2521   -2.1557    5.6835 O.3       1 <0>        -0.3017
     24 C20        -0.7634   -2.9784    6.7447 C.3       1 <0>         0.6004
     25 F1         -1.5245   -2.7543    7.8970 F         1 <0>        -0.1652
     26 F2         -0.8622   -4.3241    6.3750 F         1 <0>        -0.1342
     27 F3          0.5751   -2.6625    7.0012 F         1 <0>        -0.1656
     28 C21        -1.1509    3.3856    6.5215 C.2       1 <0>        -0.1230
     29 C22        -0.6753    3.8797    7.6880 C.2       1 <0>        -0.1531
     30 C23        -0.6498    5.2762    7.9060 C.2       1 <0>         0.4981
     31 O4         -1.0583    6.0392    7.0387 O.co2     1 <0>        -0.6925
     32 O5         -0.2191    5.7236    8.9623 O.co2     1 <0>        -0.6964
     33 H1          1.0039    1.9031    0.0027 H         1 <0>         0.0754
     34 H2         -0.5459    1.8868   -0.8726 H         1 <0>         0.0606
     35 H3         -0.5289    1.8773    0.9072 H         1 <0>         0.0639
     36 H4          0.5123   -0.3556   -0.8948 H         1 <0>         0.0927
     37 H5          0.5293   -0.3651    0.8851 H         1 <0>         0.0877
     38 H6         -0.6438    0.3595    2.4112 H         1 <0>         0.1379
     39 H7         -4.7493   -2.3927    2.4154 H         1 <0>         0.1404
     40 H8         -4.2013    0.5652   -0.1979 H         1 <0>         0.0668
     41 H9         -4.2389    0.5764   -1.9774 H         1 <0>         0.0808
     42 H10        -5.4302   -0.3838   -1.0681 H         1 <0>         0.0853
     43 H11        -4.7630   -2.4227   -2.3430 H         1 <0>         0.0798
     44 H12        -3.5708   -1.4649   -3.2538 H         1 <0>         0.0903
     45 H13        -3.0574   -2.9302   -2.3834 H         1 <0>         0.0695
     46 H14        -4.8318   -0.7784    5.0721 H         1 <0>         0.0761
     47 H15        -4.5876   -2.5249    4.8302 H         1 <0>         0.0689
     48 H16        -3.3737   -1.5708    5.7159 H         1 <0>         0.0720
     49 H17        -2.0295    2.0925    4.3235 H         1 <0>         0.1405
     50 H18        -0.3302    1.4554    8.2166 H         1 <0>         0.1395
     51 H19        -0.3723   -0.9689    7.8412 H         1 <0>         0.1341
     52 H20        -1.5110    4.0582    5.7570 H         1 <0>         0.1321
     53 H21        -0.3152    3.2072    8.4525 H         1 <0>         0.1013
@<TRIPOS>BOND
     1    1    2 1
     2    1   33 1
     3    1   34 1
     4    1   35 1
     5    2    3 1
     6    2   36 1
     7    2   37 1
     8    3   12 am
     9    3    4 1
    10    4    9 ar
    11    4    5 ar
    12    5    6 ar
    13    5   38 1
    14    6    7 ar
    15    6   17 1
    16    7    8 ar
    17    7   16 1
    18    8    9 ar
    19    8   39 1
    20    9   10 1
    21   10   11 1
    22   11   12 1
    23   11   14 1
    24   11   15 1
    25   12   13 2
    26   14   40 1
    27   14   41 1
    28   14   42 1
    29   15   43 1
    30   15   44 1
    31   15   45 1
    32   16   46 1
    33   16   47 1
    34   16   48 1
    35   17   22 ar
    36   17   18 ar
    37   18   19 ar
    38   18   49 1
    39   19   20 ar
    40   19   28 1
    41   20   21 ar
    42   20   50 1
    43   21   22 ar
    44   21   51 1
    45   22   23 1
    46   23   24 1
    47   24   25 1
    48   24   26 1
    49   24   27 1
    50   28   29 2
    51   28   52 1
    52   29   30 1
    53   29   53 1
    54   30   31 2
    55   30   32 1
@<TRIPOS>MOLECULE
CHEMBL109581
   64    65     0     0     0
SMALL
USER_CHARGES

@<TRIPOS>ATOM
      1 C1          1.0966    1.9817   -0.7470 C.3       1 <0>        -0.1490
      2 C2          0.8303    0.4935   -0.5116 C.3       1 <0>        -0.1232
      3 C3          1.4028   -0.3174   -1.6759 C.3       1 <0>         0.0591
      4 O1          1.1541   -1.7073   -1.4560 O.3       1 <0>        -0.3009
      5 C4          1.6012   -2.5705   -2.4029 C.ar      1 <0>         0.1433
      6 C5          2.2693   -2.0983   -3.5171 C.ar      1 <0>        -0.2096
      7 C6          2.7333   -2.9730   -4.4911 C.ar      1 <0>        -0.0227
      8 C7          2.5328   -4.3324   -4.3518 C.ar      1 <0>        -0.1001
      9 C8          1.8621   -4.8227   -3.2446 C.ar      1 <0>        -0.0693
     10 C9          1.3940   -3.9526   -2.2565 C.ar      1 <0>        -0.0726
     11 C10         0.6882   -4.4762   -1.0813 C.2       1 <0>        -0.0915
     12 C11         1.3152   -4.5246    0.1207 C.2       1 <0>        -0.0962
     13 C12         2.6421   -4.0727    0.2406 C.2       1 <0>        -0.1329
     14 C13         3.2726   -4.1213    1.4492 C.2       1 <0>        -0.0923
     15 C14         4.5955   -3.6708    1.5687 C.2       1 <0>        -0.0730
     16 C15         5.2266   -3.7195    2.7786 C.2       1 <0>        -0.1451
     17 C16         6.4907   -3.1261    2.9360 C.2       1 <0>         0.4416
     18 O2          7.0206   -2.4122    1.9422 O.co2     1 <0>        -0.6928
     19 O3          7.1603   -3.2770    4.0793 O.co2     1 <0>        -0.7177
     20 C17         5.3203   -3.1331    0.3619 C.3       1 <0>        -0.0972
     21 C18        -0.7332   -4.9602   -1.2097 C.3       1 <0>        -0.1033
     22 C19         3.0272   -5.3317   -5.3656 C.3       1 <0>        -0.0171
     23 C20         3.3422   -4.6419   -6.6911 C.3       1 <0>        -0.1099
     24 C21         4.2581   -3.4454   -6.4081 C.3       1 <0>        -0.1122
     25 C22         3.4448   -2.3781   -5.6791 C.3       1 <0>        -0.0237
     26 C23         2.4125   -1.7861   -6.6408 C.3       1 <0>        -0.1370
     27 C24         4.3828   -1.2678   -5.2013 C.3       1 <0>        -0.1433
     28 C25         4.2939   -6.0051   -4.8339 C.3       1 <0>        -0.1414
     29 C26         1.9500   -6.3941   -5.5934 C.3       1 <0>        -0.1413
     30 H1          2.1710    2.1523   -0.8150 H         1 <0>         0.0591
     31 H2          0.6197    2.2936   -1.6762 H         1 <0>         0.0543
     32 H3          0.6888    2.5594    0.0824 H         1 <0>         0.0635
     33 H4          1.3073    0.1817    0.4176 H         1 <0>         0.0770
     34 H5         -0.2441    0.3230   -0.4436 H         1 <0>         0.0706
     35 H6          0.9259   -0.0055   -2.6051 H         1 <0>         0.0564
     36 H7          2.4772   -0.1468   -1.7439 H         1 <0>         0.0620
     37 H8          2.4320   -1.0368   -3.6318 H         1 <0>         0.1266
     38 H9          1.7028   -5.8859   -3.1418 H         1 <0>         0.1270
     39 H10         0.7958   -4.9099    0.9856 H         1 <0>         0.1125
     40 H11         3.1616   -3.6874   -0.6243 H         1 <0>         0.1186
     41 H12         2.7531   -4.5067    2.3141 H         1 <0>         0.1099
     42 H13         4.7543   -4.2140    3.6145 H         1 <0>         0.1071
     43 H14         5.2340   -2.0468    0.3403 H         1 <0>         0.0627
     44 H15         6.3724   -3.4130    0.4154 H         1 <0>         0.0938
     45 H16         4.8789   -3.5507   -0.5430 H         1 <0>         0.0307
     46 H17        -0.7346   -6.0219   -1.4567 H         1 <0>         0.0641
     47 H18        -1.2562   -4.8061   -0.2659 H         1 <0>         0.0632
     48 H19        -1.2369   -4.4028   -1.9995 H         1 <0>         0.0594
     49 H20         3.8470   -5.3410   -7.3579 H         1 <0>         0.0652
     50 H21         2.4179   -4.2954   -7.1534 H         1 <0>         0.0669
     51 H22         5.0927   -3.7619   -5.7825 H         1 <0>         0.0713
     52 H23         4.6353   -3.0415   -7.3476 H         1 <0>         0.0656
     53 H24         1.8430   -1.0098   -6.1298 H         1 <0>         0.0537
     54 H25         2.9234   -1.3548   -7.5017 H         1 <0>         0.0572
     55 H26         1.7357   -2.5720   -6.9762 H         1 <0>         0.0580
     56 H27         5.1141   -1.6833   -4.5080 H         1 <0>         0.0607
     57 H28         4.8994   -0.8350   -6.0580 H         1 <0>         0.0575
     58 H29         3.8032   -0.4942   -4.6977 H         1 <0>         0.0560
     59 H30         4.0684   -6.5156   -3.8976 H         1 <0>         0.0571
     60 H31         4.6548   -6.7289   -5.5647 H         1 <0>         0.0555
     61 H32         5.0611   -5.2505   -4.6606 H         1 <0>         0.0596
     62 H33         1.0420   -5.9175   -5.9629 H         1 <0>         0.0548
     63 H34         2.3039   -7.1190   -6.3264 H         1 <0>         0.0557
     64 H35         1.7366   -6.9026   -4.6532 H         1 <0>         0.0584
@<TRIPOS>BOND
     1    1    2 1
     2    1   30 1
     3    1   31 1
     4    1   32 1
     5    2    3 1
     6    2   33 1
     7    2   34 1
     8    3    4 1
     9    3   35 1
    10    3   36 1
    11    4    5 1
    12    5   10 ar
    13    5    6 ar
    14    6    7 ar
    15    6   37 1
    16    7   25 1
    17    7    8 ar
    18    8    9 ar
    19    8   22 1
    20    9   10 ar
    21    9   38 1
    22   10   11 1
    23   11   12 2
    24   11   21 1
    25   12   13 1
    26   12   39 1
    27   13   14 2
    28   13   40 1
    29   14   15 1
    30   14   41 1
    31   15   16 2
    32   15   20 1
    33   16   17 1
    34   16   42 1
    35   17   18 2
    36   17   19 1
    37   20   43 1
    38   20   44 1
    39   20   45 1
    40   21   46 1
    41   21   47 1
    42   21   48 1
    43   22   23 1
    44   22   28 1
    45   22   29 1
    46   23   24 1
    47   23   49 1
    48   23   50 1
    49   24   25 1
    50   24   51 1
    51   24   52 1
    52   25   26 1
    53   25   27 1
    54   26   53 1
    55   26   54 1
    56   26   55 1
    57   27   56 1
    58   27   57 1
    59   27   58 1
    60   28   59 1
    61   28   60 1
    62   28   61 1
    63   29   62 1
    64   29   63 1
    65   29   64 1
@<TRIPOS>MOLECULE
CHEMBL377178
   66    68     0     0     0
SMALL
USER_CHARGES

@<TRIPOS>ATOM
      1 C1         -0.7778    1.3562    0.0881 C.3       1 <0>        -0.0911
      2 C2         -0.2263   -0.0448    0.0255 C.2       1 <0>        -0.1314
      3 C3          0.1247   -0.6865    1.1664 C.2       1 <0>        -0.1289
      4 C4          0.1271    0.0097    2.3968 C.2       1 <0>         0.4894
      5 O1         -0.0733    1.2182    2.4172 O.co2     1 <0>        -0.6751
      6 O2          0.3295   -0.5956    3.4427 O.co2     1 <0>        -0.6888
      7 C5         -0.0700   -0.7119   -1.2660 C.2       1 <0>         0.0021
      8 C6         -0.4159   -0.0797   -2.3901 C.2       1 <0>        -0.2724
      9 C7         -0.2548   -0.7673   -3.7214 C.3       1 <0>         0.0461
     10 N1         -1.5402   -0.7648   -4.4325 N.4       1 <0>        -0.3198
     11 C8         -2.5122   -1.5784   -3.6900 C.3       1 <0>         0.0340
     12 C9         -2.7970   -0.9239   -2.3367 C.3       1 <0>        -0.1938
     13 C10        -2.4014   -1.7005   -1.0792 C.3       1 <0>        -0.1692
     14 C11        -3.8769   -1.5588   -1.4582 C.3       1 <0>        -0.1576
     15 C12        -1.3658   -1.2997   -5.7123 C.ar      1 <0>        -0.0212
     16 C13        -0.9085   -2.5948   -5.8607 C.ar      1 <0>        -0.0971
     17 C14        -0.7359   -3.1246   -7.1255 C.ar      1 <0>        -0.0426
     18 C15        -1.0210   -2.3580   -8.2388 C.ar      1 <0>        -0.0609
     19 C16        -1.4789   -1.0596   -8.0921 C.ar      1 <0>        -0.0533
     20 C17        -1.6573   -0.5317   -6.8268 C.ar      1 <0>        -0.0801
     21 C18        -2.1690    0.8890   -6.9327 C.3       1 <0>        -0.0986
     22 C19        -1.8754    1.3168   -8.3863 C.3       1 <0>        -0.1105
     23 C20        -1.8562   -0.0289   -9.1344 C.3       1 <0>        -0.0276
     24 C21        -0.8213   -0.0097  -10.2611 C.3       1 <0>        -0.1437
     25 C22        -3.2482   -0.3263   -9.6956 C.3       1 <0>        -0.1399
     26 C23        -0.2366   -4.5369   -7.2900 C.3       1 <0>        -0.0303
     27 C24         0.0004   -5.1578   -5.9118 C.3       1 <0>        -0.1517
     28 C25        -1.2790   -5.3613   -8.0482 C.3       1 <0>        -0.1431
     29 C26         1.0755   -4.5257   -8.0768 C.3       1 <0>        -0.1436
     30 H1          0.0455    2.0689    0.1371 H         1 <0>         0.0665
     31 H2         -1.3751    1.5517   -0.8024 H         1 <0>         0.0259
     32 H3         -1.4027    1.4615    0.9750 H         1 <0>         0.0934
     33 H4          0.4026   -1.7296    1.1356 H         1 <0>         0.1028
     34 H5          0.3252   -1.7160   -1.3109 H         1 <0>         0.1154
     35 H6         -0.8111    0.9244   -2.3452 H         1 <0>         0.1367
     36 H7          0.4902   -0.2383   -4.3157 H         1 <0>         0.1273
     37 H8          0.0704   -1.7954   -3.5623 H         1 <0>         0.1206
     38 H9         -3.4378   -1.6498   -4.2611 H         1 <0>         0.1250
     39 H10        -2.1047   -2.5770   -3.5321 H         1 <0>         0.1222
     40 H11        -2.7001    0.1614   -2.3097 H         1 <0>         0.1278
     41 H12        -1.9382   -2.6777   -1.2160 H         1 <0>         0.0980
     42 H13        -2.0439   -1.1261   -0.2246 H         1 <0>         0.1284
     43 H14        -4.4902   -0.8912   -0.8530 H         1 <0>         0.1081
     44 H15        -4.3844   -2.4428   -1.8445 H         1 <0>         0.0981
     45 H16        -0.6858   -3.1926   -4.9892 H         1 <0>         0.1476
     46 H17        -0.8859   -2.7726   -9.2268 H         1 <0>         0.1380
     47 H18        -3.2411    0.9203   -6.7384 H         1 <0>         0.0963
     48 H19        -1.6381    1.5353   -6.2337 H         1 <0>         0.0834
     49 H20        -2.6643    1.9662   -8.7659 H         1 <0>         0.0908
     50 H21        -0.9030    1.8040   -8.4580 H         1 <0>         0.0824
     51 H22        -0.7781   -0.9921  -10.7315 H         1 <0>         0.0608
     52 H23        -1.1059    0.7362  -11.0032 H         1 <0>         0.0681
     53 H24         0.1573    0.2403   -9.8514 H         1 <0>         0.0607
     54 H25        -3.9791   -0.2992   -8.8874 H         1 <0>         0.0582
     55 H26        -3.5060    0.4232  -10.4439 H         1 <0>         0.0695
     56 H27        -3.2511   -1.3146  -10.1552 H         1 <0>         0.0607
     57 H28        -0.9343   -5.1658   -5.3513 H         1 <0>         0.0592
     58 H29         0.3615   -6.1793   -6.0308 H         1 <0>         0.0704
     59 H30         0.7430   -4.5705   -5.3716 H         1 <0>         0.0602
     60 H31        -1.4478   -4.9190   -9.0300 H         1 <0>         0.0598
     61 H32        -0.9179   -6.3828   -8.1672 H         1 <0>         0.0682
     62 H33        -2.2137   -5.3693   -7.4877 H         1 <0>         0.0588
     63 H34         1.8181   -3.9384   -7.5366 H         1 <0>         0.0597
     64 H35         1.4366   -5.5472   -8.1958 H         1 <0>         0.0683
     65 H36         0.9066   -4.0834   -9.0586 H         1 <0>         0.0599
     66 H37        -1.8814    0.1818   -4.5072 H         1 <0>         0.4236
@<TRIPOS>BOND
     1    1    2 1
     2    1   30 1
     3    1   31 1
     4    1   32 1
     5    2    3 2
     6    2    7 1
     7    3    4 1
     8    3   33 1
     9    4    5 2
    10    4    6 1
    11    7    8 2
    12    7   34 1
    13    8    9 1
    14    8   35 1
    15    9   10 1
    16    9   36 1
    17    9   37 1
    18   10   11 1
    19   10   15 1
    20   10   66 1
    21   11   12 1
    22   11   38 1
    23   11   39 1
    24   12   14 1
    25   12   13 1
    26   12   40 1
    27   13   14 1
    28   13   41 1
    29   13   42 1
    30   14   43 1
    31   14   44 1
    32   15   20 ar
    33   15   16 ar
    34   16   17 ar
    35   16   45 1
    36   17   18 ar
    37   17   26 1
    38   18   19 ar
    39   18   46 1
    40   19   23 1
    41   19   20 ar
    42   20   21 1
    43   21   22 1
    44   21   47 1
    45   21   48 1
    46   22   23 1
    47   22   49 1
    48   22   50 1
    49   23   24 1
    50   23   25 1
    51   24   51 1
    52   24   52 1
    53   24   53 1
    54   25   54 1
    55   25   55 1
    56   25   56 1
    57   26   27 1
    58   26   28 1
    59   26   29 1
    60   27   57 1
    61   27   58 1
    62   27   59 1
    63   28   60 1
    64   28   61 1
    65   28   62 1
    66   29   63 1
    67   29   64 1
    68   29   65 1
@<TRIPOS>MOLECULE
CHEMBL377178__1
   65    67     0     0     0
SMALL
USER_CHARGES

@<TRIPOS>ATOM
      1 C1         -0.7778    1.3562    0.0881 C.3       1 <0>        -0.0893
      2 C2         -0.2263   -0.0448    0.0255 C.2       1 <0>        -0.0915
      3 C3          0.1247   -0.6865    1.1664 C.2       1 <0>        -0.1834
      4 C4          0.1271    0.0097    2.3968 C.2       1 <0>         0.4998
      5 O1         -0.0733    1.2182    2.4172 O.co2     1 <0>        -0.6865
      6 O2          0.3295   -0.5956    3.4427 O.co2     1 <0>        -0.7063
      7 C5         -0.0700   -0.7119   -1.2660 C.2       1 <0>        -0.0927
      8 C6         -0.4159   -0.0797   -2.3901 C.2       1 <0>        -0.1937
      9 C7         -0.2548   -0.7673   -3.7214 C.3       1 <0>         0.1816
     10 N1         -1.5367   -0.7648   -4.4305 N.pl3     1 <0>        -0.6662
     11 C8         -1.8785    0.3463   -5.3221 C.3       1 <0>         0.1776
     12 C9         -1.3876    0.0342   -6.7372 C.3       1 <0>        -0.1752
     13 C10        -0.3138    0.9486   -7.3303 C.3       1 <0>        -0.1807
     14 C11        -1.7524    1.0236   -7.8458 C.3       1 <0>        -0.1828
     15 C12        -2.4331   -1.8218   -4.2566 C.ar      1 <0>         0.1895
     16 C13        -3.3902   -1.7613   -3.2529 C.ar      1 <0>        -0.1183
     17 C14        -4.2755   -2.8074   -3.0836 C.ar      1 <0>        -0.0631
     18 C15        -4.2075   -3.9116   -3.9117 C.ar      1 <0>        -0.1048
     19 C16        -3.2544   -3.9771   -4.9148 C.ar      1 <0>        -0.0823
     20 C17        -2.3696   -2.9316   -5.0931 C.ar      1 <0>        -0.1052
     21 C18        -1.4399   -3.2382   -6.2475 C.3       1 <0>        -0.0715
     22 C19        -1.5692   -4.7591   -6.4771 C.3       1 <0>        -0.1142
     23 C20        -2.9790   -5.0603   -5.9359 C.3       1 <0>        -0.0227
     24 C21        -3.0227   -6.4385   -5.2728 C.3       1 <0>        -0.1375
     25 C22        -3.9965   -4.9861   -7.0762 C.3       1 <0>        -0.1330
     26 C23        -5.3157   -2.7451   -1.9950 C.3       1 <0>        -0.0264
     27 C24        -5.1747   -1.4279   -1.2295 C.3       1 <0>        -0.1454
     28 C25        -6.7110   -2.8263   -2.6176 C.3       1 <0>        -0.1354
     29 C26        -5.1177   -3.9180   -1.0326 C.3       1 <0>        -0.1385
     30 H1          0.0455    2.0689    0.1371 H         1 <0>         0.0605
     31 H2         -1.3751    1.5517   -0.8024 H         1 <0>         0.0289
     32 H3         -1.4027    1.4614    0.9750 H         1 <0>         0.0867
     33 H4          0.4026   -1.7296    1.1356 H         1 <0>         0.0941
     34 H5          0.3252   -1.7160   -1.3109 H         1 <0>         0.1033
     35 H6         -0.8111    0.9244   -2.3452 H         1 <0>         0.1125
     36 H7          0.4902   -0.2383   -4.3157 H         1 <0>         0.0700
     37 H8          0.0705   -1.7954   -3.5623 H         1 <0>         0.0615
     38 H9         -2.9598    0.4828   -5.3345 H         1 <0>         0.0633
     39 H10        -1.4011    1.2588   -4.9650 H         1 <0>         0.0667
     40 H11        -1.3492   -1.0232   -6.9990 H         1 <0>         0.1116
     41 H12         0.0429    1.7726   -6.7123 H         1 <0>         0.0926
     42 H13         0.4314    0.4928   -7.9823 H         1 <0>         0.0881
     43 H14        -1.9536    0.6171   -8.8370 H         1 <0>         0.0888
     44 H15        -2.3421    1.8968   -7.5670 H         1 <0>         0.0916
     45 H16        -3.4421   -0.8982   -2.6058 H         1 <0>         0.1297
     46 H17        -4.9011   -4.7281   -3.7759 H         1 <0>         0.1129
     47 H18        -1.7510   -2.6933   -7.1388 H         1 <0>         0.0742
     48 H19        -0.4136   -2.9813   -5.9852 H         1 <0>         0.0713
     49 H20        -1.4963   -4.9984   -7.5380 H         1 <0>         0.0730
     50 H21        -0.8185   -5.3028   -5.9036 H         1 <0>         0.0706
     51 H22        -4.0090   -6.6015   -4.8383 H         1 <0>         0.0554
     52 H23        -2.8229   -7.2073   -6.0192 H         1 <0>         0.0553
     53 H24        -2.2674   -6.4884   -4.4885 H         1 <0>         0.0571
     54 H25        -3.9271   -4.0130   -7.5622 H         1 <0>         0.0553
     55 H26        -3.7859   -5.7710   -7.8027 H         1 <0>         0.0562
     56 H27        -5.0012   -5.1216   -6.6759 H         1 <0>         0.0549
     57 H28        -5.3158   -0.5924   -1.9151 H         1 <0>         0.0562
     58 H29        -5.9271   -1.3829   -0.4421 H         1 <0>         0.0569
     59 H30        -4.1807   -1.3701   -0.7859 H         1 <0>         0.0640
     60 H31        -6.8115   -3.7647   -3.1629 H         1 <0>         0.0539
     61 H32        -7.4634   -2.7813   -1.8302 H         1 <0>         0.0565
     62 H33        -6.8521   -1.9907   -3.3032 H         1 <0>         0.0542
     63 H34        -4.1237   -3.8602   -0.5891 H         1 <0>         0.0591
     64 H35        -5.8701   -3.8730   -0.2453 H         1 <0>         0.0572
     65 H36        -5.2182   -4.8564   -1.5780 H         1 <0>         0.0537
@<TRIPOS>BOND
     1    1    2 1
     2    1   30 1
     3    1   31 1
     4    1   32 1
     5    2    3 2
     6    2    7 1
     7    3    4 1
     8    3   33 1
     9    4    5 2
    10    4    6 1
    11    7    8 2
    12    7   34 1
    13    8    9 1
    14    8   35 1
    15    9   10 1
    16    9   36 1
    17    9   37 1
    18   10   11 1
    19   10   15 1
    20   11   12 1
    21   11   38 1
    22   11   39 1
    23   12   14 1
    24   12   13 1
    25   12   40 1
    26   13   14 1
    27   13   41 1
    28   13   42 1
    29   14   43 1
    30   14   44 1
    31   15   20 ar
    32   15   16 ar
    33   16   17 ar
    34   16   45 1
    35   17   18 ar
    36   17   26 1
    37   18   19 ar
    38   18   46 1
    39   19   23 1
    40   19   20 ar
    41   20   21 1
    42   21   22 1
    43   21   47 1
    44   21   48 1
    45   22   23 1
    46   22   49 1
    47   22   50 1
    48   23   24 1
    49   23   25 1
    50   24   51 1
    51   24   52 1
    52   24   53 1
    53   25   54 1
    54   25   55 1
    55   25   56 1
    56   26   27 1
    57   26   28 1
    58   26   29 1
    59   27   57 1
    60   27   58 1
    61   27   59 1
    62   28   60 1
    63   28   61 1
    64   28   62 1
    65   29   63 1
    66   29   64 1
    67   29   65 1
@<TRIPOS>MOLECULE
CHEMBL277626
   57    60     0     0     0
SMALL
USER_CHARGES

@<TRIPOS>ATOM
      1 C1         -0.4665    1.6603    0.2047 C.3       1 <0>        -0.1144
      2 C2         -0.2644    0.1753    0.0471 C.ar      1 <0>        -0.0662
      3 C3         -0.4099   -0.4161   -1.1882 C.ar      1 <0>        -0.1200
      4 C4         -0.2237   -1.7843   -1.3469 C.ar      1 <0>        -0.0610
      5 C5          0.1134   -2.5621   -0.2599 C.ar      1 <0>        -0.0685
      6 C6          0.2580   -1.9762    0.9883 C.ar      1 <0>        -0.0983
      7 C7          0.0765   -0.6064    1.1495 C.ar      1 <0>        -0.0338
      8 C8          0.2390    0.0167    2.4855 C.2       1 <0>         0.0374
      9 C9         -0.7271   -0.1084    3.4048 C.2       1 <0>        -0.2054
     10 C10        -2.0763   -0.6471    3.8055 C.3       1 <0>        -0.1284
     11 C11        -1.2483    0.1828    4.7886 C.3       1 <0>        -0.1255
     12 C12         1.4699    0.7773    2.8033 C.ar      1 <0>        -0.0568
     13 C13         1.3983    2.1505    3.0445 C.ar      1 <0>        -0.1182
     14 C14         2.5367    2.8559    3.3383 C.ar      1 <0>        -0.0868
     15 C15         3.7702    2.1989    3.3968 C.ar      1 <0>        -0.1272
     16 C16         3.8403    0.8228    3.1554 C.ar      1 <0>        -0.0858
     17 C17         2.6994    0.1191    2.8670 C.ar      1 <0>        -0.1190
     18 C18         4.9948    2.9556    3.7120 C.2       1 <0>         0.5179
     19 O1          4.9329    4.1590    3.9226 O.co2     1 <0>        -0.6878
     20 O2          6.0731    2.3805    3.7630 O.co2     1 <0>        -0.6875
     21 C19         0.3452   -4.0469   -0.3665 C.3       1 <0>        -0.0208
     22 C20        -0.2573   -4.5938   -1.6588 C.3       1 <0>        -0.1099
     23 C21         0.2438   -3.7367   -2.8270 C.3       1 <0>        -0.1116
     24 C22        -0.4076   -2.3589   -2.7276 C.3       1 <0>        -0.0219
     25 C23        -1.9028   -2.4850   -3.0265 C.3       1 <0>        -0.1376
     26 C24         0.2339   -1.4224   -3.7534 C.3       1 <0>        -0.1425
     27 C25         1.8498   -4.3246   -0.3544 C.3       1 <0>        -0.1405
     28 C26        -0.3054   -4.7460    0.8289 C.3       1 <0>        -0.1417
     29 H1          0.4967    2.1668    0.1420 H         1 <0>         0.0748
     30 H2         -1.1206    2.0241   -0.5877 H         1 <0>         0.0606
     31 H3         -0.9217    1.8642    1.1739 H         1 <0>         0.0668
     32 H4         -0.6719    0.1899   -2.0429 H         1 <0>         0.1204
     33 H5          0.5170   -2.5868    1.8407 H         1 <0>         0.1201
     34 H6         -2.9568   -0.1811    3.3632 H         1 <0>         0.0975
     35 H7         -2.1553   -1.7173    3.9967 H         1 <0>         0.0973
     36 H8         -0.7857   -0.3446    5.6228 H         1 <0>         0.0999
     37 H9         -1.5790    1.1998    4.9991 H         1 <0>         0.1006
     38 H10         0.4458    2.6575    2.9992 H         1 <0>         0.1113
     39 H11         2.4811    3.9183    3.5241 H         1 <0>         0.1262
     40 H12         4.7920    0.3141    3.2002 H         1 <0>         0.1260
     41 H13         2.7526   -0.9440    2.6845 H         1 <0>         0.1109
     42 H14         0.0564   -5.6279   -1.8012 H         1 <0>         0.0650
     43 H15        -1.3449   -4.5436   -1.6067 H         1 <0>         0.0674
     44 H16         1.3276   -3.6354   -2.7696 H         1 <0>         0.0694
     45 H17        -0.0320   -4.2059   -3.7714 H         1 <0>         0.0648
     46 H18        -2.3678   -1.5005   -2.9757 H         1 <0>         0.0551
     47 H19        -2.0399   -2.9005   -4.0249 H         1 <0>         0.0558
     48 H20        -2.3659   -3.1439   -2.2920 H         1 <0>         0.0573
     49 H21         1.2977   -1.3219   -3.5383 H         1 <0>         0.0576
     50 H22         0.1029   -1.8348   -4.7538 H         1 <0>         0.0559
     51 H23        -0.2419   -0.4432   -3.6989 H         1 <0>         0.0585
     52 H24         2.2803   -3.9534    0.5757 H         1 <0>         0.0575
     53 H25         2.0217   -5.3982   -0.4313 H         1 <0>         0.0563
     54 H26         2.3192   -3.8200   -1.1989 H         1 <0>         0.0585
     55 H27        -1.3763   -4.5427    0.8300 H         1 <0>         0.0550
     56 H28        -0.1398   -5.8209    0.7554 H         1 <0>         0.0561
     57 H29         0.1363   -4.3726    1.7528 H         1 <0>         0.0590
@<TRIPOS>BOND
     1    1    2 1
     2    1   29 1
     3    1   30 1
     4    1   31 1
     5    2    7 ar
     6    2    3 ar
     7    3    4 ar
     8    3   32 1
     9    4   24 1
    10    4    5 ar
    11    5    6 ar
    12    5   21 1
    13    6    7 ar
    14    6   33 1
    15    7    8 1
    16    8    9 2
    17    8   12 1
    18    9   11 1
    19    9   10 1
    20   10   11 1
    21   10   34 1
    22   10   35 1
    23   11   36 1
    24   11   37 1
    25   12   17 ar
    26   12   13 ar
    27   13   14 ar
    28   13   38 1
    29   14   15 ar
    30   14   39 1
    31   15   16 ar
    32   15   18 1
    33   16   17 ar
    34   16   40 1
    35   17   41 1
    36   18   19 2
    37   18   20 1
    38   21   22 1
    39   21   27 1
    40   21   28 1
    41   22   23 1
    42   22   42 1
    43   22   43 1
    44   23   24 1
    45   23   44 1
    46   23   45 1
    47   24   25 1
    48   24   26 1
    49   25   46 1
    50   25   47 1
    51   25   48 1
    52   26   49 1
    53   26   50 1
    54   26   51 1
    55   27   52 1
    56   27   53 1
    57   27   54 1
    58   28   55 1
    59   28   56 1
    60   28   57 1
@<TRIPOS>MOLECULE
CHEMBL139536
   52    54     0     0     0
SMALL
USER_CHARGES

@<TRIPOS>ATOM
      1 C1          0.1754    1.2345   -0.3630 C.3       1 <0>        -0.1448
      2 C2          0.1534   -0.2881   -0.1675 C.3       1 <0>        -0.0221
      3 C3         -1.2402   -0.7949   -0.4388 C.3       1 <0>        -0.1024
      4 C4         -2.1379   -0.9436    0.7859 C.3       1 <0>        -0.0338
      5 S1         -1.3469   -2.1508    1.8976 S.3       1 <0>        -0.1336
      6 C5          0.2506   -1.4266    2.1241 C.ar      1 <0>        -0.0869
      7 C6          0.7974   -0.6194    1.1407 C.ar      1 <0>        -0.0325
      8 C7          2.0593   -0.0750    1.3787 C.ar      1 <0>        -0.1344
      9 C8          2.7404   -0.3269    2.5584 C.ar      1 <0>         0.1478
     10 C9          2.1768   -1.1410    3.5313 C.ar      1 <0>        -0.1078
     11 C10         0.9320   -1.6888    3.3074 C.ar      1 <0>        -0.0739
     12 N1          4.0029    0.2434    2.7690 N.am      1 <0>        -0.6681
     13 C11         4.9352   -0.4257    3.4757 C.2       1 <0>         0.5578
     14 O1          4.7161   -1.5619    3.8480 O.2       1 <0>        -0.5049
     15 C12         6.2259    0.2228    3.7982 C.ar      1 <0>        -0.1016
     16 C13         6.4752    1.5294    3.3755 C.ar      1 <0>        -0.0971
     17 C14         7.6767    2.1335    3.6762 C.ar      1 <0>        -0.0603
     18 C15         8.6446    1.4386    4.4036 C.ar      1 <0>        -0.0978
     19 C16         8.3951    0.1316    4.8263 C.ar      1 <0>        -0.0666
     20 C17         7.1914   -0.4703    4.5300 C.ar      1 <0>        -0.0688
     21 C18         9.9345    2.0867    4.7260 C.2       1 <0>         0.5049
     22 O2         10.1516    3.2235    4.3579 O.2       1 <0>        -0.4962
     23 O3         10.8683    1.4161    5.4278 O.3       1 <0>        -0.3473
     24 C19        12.0906    2.1033    5.7032 C.3       1 <0>         0.0336
     25 C20        -3.5074   -1.4903    0.3512 C.3       1 <0>        -0.1322
     26 C21        -2.3426    0.3812    1.5177 C.3       1 <0>        -0.1402
     27 C22         1.0604   -0.8805   -1.2704 C.3       1 <0>        -0.1430
     28 H1          1.2072    1.5861   -0.3614 H         1 <0>         0.0586
     29 H2         -0.2924    1.4854   -1.3150 H         1 <0>         0.0627
     30 H3         -0.3727    1.7130    0.4486 H         1 <0>         0.0602
     31 H4         -1.7295   -0.1150   -1.1538 H         1 <0>         0.0797
     32 H5         -1.1674   -1.7723   -0.9423 H         1 <0>         0.0770
     33 H6          2.5344    0.5523    0.6391 H         1 <0>         0.1272
     34 H7          2.7051   -1.3433    4.4506 H         1 <0>         0.1408
     35 H8          0.4867   -2.3253    4.0581 H         1 <0>         0.1336
     36 H9          4.2058    1.1199    2.4062 H         1 <0>         0.4109
     37 H10         5.7265    2.0669    2.8125 H         1 <0>         0.1371
     38 H11         7.8696    3.1445    3.3488 H         1 <0>         0.1475
     39 H12         9.1439   -0.4063    5.3888 H         1 <0>         0.1498
     40 H13         6.9968   -1.4799    4.8606 H         1 <0>         0.1494
     41 H14        11.8793    3.0027    6.2816 H         1 <0>         0.0637
     42 H15        12.7531    1.4520    6.2733 H         1 <0>         0.1068
     43 H16        12.5716    2.3794    4.7649 H         1 <0>         0.0637
     44 H17        -3.3764   -2.4622   -0.1244 H         1 <0>         0.0665
     45 H18        -4.1500   -1.5971    1.2251 H         1 <0>         0.0676
     46 H19        -3.9669   -0.7990   -0.3553 H         1 <0>         0.0739
     47 H20        -2.8074    1.1007    0.8435 H         1 <0>         0.0665
     48 H21        -2.9883    0.2231    2.3815 H         1 <0>         0.0680
     49 H22        -1.3783    0.7654    1.8503 H         1 <0>         0.0618
     50 H23         2.0708   -0.4866   -1.1604 H         1 <0>         0.0586
     51 H24         1.0818   -1.9664   -1.1788 H         1 <0>         0.0592
     52 H25         0.6681   -0.6062   -2.2496 H         1 <0>         0.0615
@<TRIPOS>BOND
     1    1    2 1
     2    1   28 1
     3    1   29 1
     4    1   30 1
     5    2    7 1
     6    2    3 1
     7    2   27 1
     8    3    4 1
     9    3   31 1
    10    3   32 1
    11    4    5 1
    12    4   25 1
    13    4   26 1
    14    5    6 1
    15    6   11 ar
    16    6    7 ar
    17    7    8 ar
    18    8    9 ar
    19    8   33 1
    20    9   10 ar
    21    9   12 1
    22   10   11 ar
    23   10   34 1
    24   11   35 1
    25   12   13 am
    26   12   36 1
    27   13   14 2
    28   13   15 1
    29   15   20 ar
    30   15   16 ar
    31   16   17 ar
    32   16   37 1
    33   17   18 ar
    34   17   38 1
    35   18   19 ar
    36   18   21 1
    37   19   20 ar
    38   19   39 1
    39   20   40 1
    40   21   22 2
    41   21   23 1
    42   23   24 1
    43   24   41 1
    44   24   42 1
    45   24   43 1
    46   25   44 1
    47   25   45 1
    48   25   46 1
    49   26   47 1
    50   26   48 1
    51   26   49 1
    52   27   50 1
    53   27   51 1
    54   27   52 1
@<TRIPOS>MOLECULE
CHEMBL248191
   56    58     0     0     0
SMALL
USER_CHARGES

@<TRIPOS>ATOM
      1 C1         -0.5049    2.6900    0.7581 C.3       1 <0>        -0.1726
      2 C2         -0.2253    1.1886    0.8501 C.3       1 <0>         0.1035
      3 N1          0.7076    0.7997   -0.2105 N.am      1 <0>        -0.5461
      4 C3          0.2301    0.3976   -1.4664 C.ar      1 <0>         0.0882
      5 C4         -1.0757    0.6581   -1.8402 C.ar      1 <0>        -0.1000
      6 C5         -1.5307    0.2491   -3.0928 C.ar      1 <0>        -0.0326
      7 C6         -0.6696   -0.4192   -3.9616 C.ar      1 <0>        -0.0471
      8 C7          0.6332   -0.6768   -3.5841 C.ar      1 <0>        -0.1091
      9 C8          1.0881   -0.2705   -2.3404 C.ar      1 <0>         0.0886
     10 O1          2.3705   -0.5160   -1.9595 O.3       1 <0>        -0.2971
     11 C9          2.9858    0.4549   -1.1091 C.3       1 <0>         0.1044
     12 C10         2.0408    0.8283    0.0045 C.2       1 <0>         0.4980
     13 O2          2.4759    1.1487    1.0904 O.2       1 <0>        -0.5078
     14 C11         3.3231    1.7051   -1.9241 C.3       1 <0>        -0.1716
     15 C12         4.2704   -0.1280   -0.5166 C.3       1 <0>        -0.1277
     16 C13        -1.1618   -0.8620   -5.3154 C.3       1 <0>        -0.1167
     17 C14        -2.9302    0.5245   -3.5006 C.ar      1 <0>        -0.0473
     18 C15        -3.3590    1.8331   -3.6753 C.ar      1 <0>        -0.0608
     19 C16        -4.6796    2.0852   -4.0597 C.ar      1 <0>        -0.0333
     20 C17        -5.5626    1.0170   -4.2664 C.ar      1 <0>        -0.0676
     21 C18        -5.1322   -0.2790   -4.0918 C.ar      1 <0>        -0.1854
     22 C19        -3.8201   -0.5358   -3.7157 C.ar      1 <0>         0.1014
     23 O3         -3.4010   -1.8156   -3.5512 O.3       1 <0>        -0.3013
     24 C20        -4.3605   -2.8479   -3.7871 C.3       1 <0>         0.6005
     25 F1         -4.8161   -2.7683   -5.1075 F         1 <0>        -0.1653
     26 F2         -3.7650   -4.0957   -3.5737 F         1 <0>        -0.1339
     27 F3         -5.4399   -2.6904   -2.9111 F         1 <0>        -0.1661
     28 C21        -5.1406    3.4673   -4.2460 C.2       1 <0>        -0.0922
     29 C22        -4.6130    4.2294   -5.2319 C.2       1 <0>        -0.1727
     30 C23        -4.9405    5.6020   -5.3163 C.2       1 <0>         0.5004
     31 O4         -5.6124    6.1268   -4.4362 O.co2     1 <0>        -0.6839
     32 O5         -4.5525    6.2669   -6.2695 O.co2     1 <0>        -0.7018
     33 C24        -6.2010    4.0367   -3.3391 C.3       1 <0>        -0.0871
     34 H1          0.4282    3.2412    0.8748 H         1 <0>         0.0609
     35 H2         -0.9431    2.9191   -0.2132 H         1 <0>         0.0642
     36 H3         -1.1989    2.9793    1.5472 H         1 <0>         0.0752
     37 H4          0.2130    0.9594    1.8214 H         1 <0>         0.0926
     38 H5         -1.1584    0.6374    0.7333 H         1 <0>         0.0873
     39 H6         -1.7402    1.1759   -1.1644 H         1 <0>         0.1377
     40 H7          1.2981   -1.1953   -4.2589 H         1 <0>         0.1406
     41 H8          2.4087    2.1202   -2.3478 H         1 <0>         0.0672
     42 H9          3.7922    2.4455   -1.2762 H         1 <0>         0.0809
     43 H10         4.0088    1.4400   -2.7289 H         1 <0>         0.0855
     44 H11         4.9553   -0.3914   -1.3226 H         1 <0>         0.0798
     45 H12         4.7398    0.6119    0.1318 H         1 <0>         0.0903
     46 H13         4.0312   -1.0196    0.0630 H         1 <0>         0.0693
     47 H14        -0.9869   -0.0692   -6.0427 H         1 <0>         0.0768
     48 H15        -0.6255   -1.7603   -5.6210 H         1 <0>         0.0692
     49 H16        -2.2291   -1.0766   -5.2616 H         1 <0>         0.0713
     50 H17        -2.6752    2.6535   -3.5145 H         1 <0>         0.1397
     51 H18        -6.5828    1.2107   -4.5630 H         1 <0>         0.1362
     52 H19        -5.8163   -1.0992   -4.2519 H         1 <0>         0.1341
     53 H20        -3.9418    3.7890   -5.9544 H         1 <0>         0.0967
     54 H21        -5.7269    4.5884   -2.5274 H         1 <0>         0.0642
     55 H22        -6.8435    4.7084   -3.9083 H         1 <0>         0.0944
     56 H23        -6.7995    3.2250   -2.9256 H         1 <0>         0.0282
@<TRIPOS>BOND
     1    1    2 1
     2    1   34 1
     3    1   35 1
     4    1   36 1
     5    2    3 1
     6    2   37 1
     7    2   38 1
     8    3   12 am
     9    3    4 1
    10    4    9 ar
    11    4    5 ar
    12    5    6 ar
    13    5   39 1
    14    6    7 ar
    15    6   17 1
    16    7    8 ar
    17    7   16 1
    18    8    9 ar
    19    8   40 1
    20    9   10 1
    21   10   11 1
    22   11   12 1
    23   11   14 1
    24   11   15 1
    25   12   13 2
    26   14   41 1
    27   14   42 1
    28   14   43 1
    29   15   44 1
    30   15   45 1
    31   15   46 1
    32   16   47 1
    33   16   48 1
    34   16   49 1
    35   17   22 ar
    36   17   18 ar
    37   18   19 ar
    38   18   50 1
    39   19   20 ar
    40   19   28 1
    41   20   21 ar
    42   20   51 1
    43   21   22 ar
    44   21   52 1
    45   22   23 1
    46   23   24 1
    47   24   25 1
    48   24   26 1
    49   24   27 1
    50   28   29 2
    51   28   33 1
    52   29   30 1
    53   29   53 1
    54   30   31 2
    55   30   32 1
    56   33   54 1
    57   33   55 1
    58   33   56 1
@<TRIPOS>MOLECULE
CHEMBL36991
   52    55     0     0     0
SMALL
USER_CHARGES

@<TRIPOS>ATOM
      1 C1         -0.0184    1.5028    0.0103 C.3       1 <0>        -0.0754
      2 C2          0.0021   -0.0041    0.0020 C.2       1 <0>        -0.0074
      3 C3         -1.0705   -0.8164    0.0025 C.2       1 <0>        -0.0213
      4 N1         -0.6270   -2.0826   -0.0064 N.2       1 <0>        -0.4531
      5 C4          0.6851   -2.0676   -0.0123 C.2       1 <0>         0.2360
      6 O1          1.0981   -0.7883   -0.0131 O.3       1 <0>        -0.1906
      7 C5          1.5619   -3.2577   -0.0227 C.ar      1 <0>        -0.0212
      8 C6          1.0059   -4.5378   -0.0330 C.ar      1 <0>        -0.0699
      9 C7          1.8298   -5.6443   -0.0432 C.ar      1 <0>        -0.1205
     10 C8          3.2044   -5.4871   -0.0433 C.ar      1 <0>        -0.0983
     11 C9          3.7620   -4.2209   -0.0327 C.ar      1 <0>        -0.1204
     12 C10         2.9493   -3.1060   -0.0282 C.ar      1 <0>        -0.0890
     13 C11        -2.5133   -0.3814    0.0119 C.3       1 <0>         0.1485
     14 O2         -2.9758   -0.2362   -1.3324 O.3       1 <0>        -0.3092
     15 C12        -4.2665    0.1537   -1.5021 C.ar      1 <0>         0.1288
     16 C13        -5.0697    0.3972   -0.3974 C.ar      1 <0>        -0.2070
     17 C14        -6.3813    0.7940   -0.5726 C.ar      1 <0>        -0.0745
     18 C15        -6.8939    0.9479   -1.8474 C.ar      1 <0>        -0.1211
     19 C16        -6.0956    0.7054   -2.9500 C.ar      1 <0>        -0.0742
     20 C17        -4.7815    0.3145   -2.7802 C.ar      1 <0>        -0.1473
     21 C18        -8.3252    1.3804   -2.0356 C.3       1 <0>        -0.0758
     22 C19        -8.3923    2.9075   -2.1002 C.3       1 <0>        -0.1136
     23 C20        -9.8455    3.3465   -2.2912 C.3       1 <0>        -0.1205
     24 C21        -9.9126    4.8737   -2.3559 C.3       1 <0>         0.0398
     25 C22       -11.3465    5.3357   -2.5178 C.2       1 <0>         0.5069
     26 O3        -12.2676    5.1515   -1.7515 O.2       1 <0>        -0.4442
     27 N2        -11.3823    5.9956   -3.6936 N.am      1 <0>        -0.6855
     28 C23       -10.1743    6.0018   -4.2717 C.2       1 <0>         0.6503
     29 O4         -9.9377    6.5314   -5.3389 O.2       1 <0>        -0.4689
     30 O5         -9.2548    5.3565   -3.5371 O.3       1 <0>        -0.2931
     31 H1          1.0042    1.8801    0.0026 H         1 <0>         0.0842
     32 H2         -0.5455    1.8639   -0.8728 H         1 <0>         0.0959
     33 H3         -0.5286    1.8543    0.9071 H         1 <0>         0.0933
     34 H4         -0.0670   -4.6619   -0.0326 H         1 <0>         0.1383
     35 H5          1.4008   -6.6354   -0.0508 H         1 <0>         0.1335
     36 H6          3.8450   -6.3565   -0.0513 H         1 <0>         0.1299
     37 H7          4.8357   -4.1050   -0.0321 H         1 <0>         0.1321
     38 H8          3.3858   -2.1181   -0.0249 H         1 <0>         0.1307
     39 H9         -3.1156   -1.1316    0.5243 H         1 <0>         0.0826
     40 H10        -2.6018    0.5726    0.5316 H         1 <0>         0.0819
     41 H11        -4.6700    0.2764    0.5986 H         1 <0>         0.1275
     42 H12        -7.0070    0.9836    0.2871 H         1 <0>         0.1251
     43 H13        -6.4984    0.8261   -3.9448 H         1 <0>         0.1294
     44 H14        -4.1571    0.1294   -3.6417 H         1 <0>         0.1302
     45 H15        -8.7128    0.9600   -2.9636 H         1 <0>         0.0739
     46 H16        -8.9251    1.0255   -1.1976 H         1 <0>         0.0742
     47 H17        -8.0048    3.3278   -1.1722 H         1 <0>         0.0721
     48 H18        -7.7924    3.2624   -2.9382 H         1 <0>         0.0768
     49 H19       -10.2330    2.9262   -3.2193 H         1 <0>         0.0816
     50 H20       -10.4454    2.9916   -1.4532 H         1 <0>         0.1018
     51 H21        -9.4662    5.3127   -1.4637 H         1 <0>         0.1531
     52 H22       -12.1752    6.4091   -4.0694 H         1 <0>         0.4437
@<TRIPOS>BOND
     1    1    2 1
     2    1   31 1
     3    1   32 1
     4    1   33 1
     5    2    6 1
     6    2    3 2
     7    3    4 1
     8    3   13 1
     9    4    5 2
    10    5    6 1
    11    5    7 1
    12    7   12 ar
    13    7    8 ar
    14    8    9 ar
    15    8   34 1
    16    9   10 ar
    17    9   35 1
    18   10   11 ar
    19   10   36 1
    20   11   12 ar
    21   11   37 1
    22   12   38 1
    23   13   14 1
    24   13   39 1
    25   13   40 1
    26   14   15 1
    27   15   20 ar
    28   15   16 ar
    29   16   17 ar
    30   16   41 1
    31   17   18 ar
    32   17   42 1
    33   18   19 ar
    34   18   21 1
    35   19   20 ar
    36   19   43 1
    37   20   44 1
    38   21   22 1
    39   21   45 1
    40   21   46 1
    41   22   23 1
    42   22   47 1
    43   22   48 1
    44   23   24 1
    45   23   49 1
    46   23   50 1
    47   24   30 1
    48   24   25 1
    49   24   51 1
    50   25   26 2
    51   25   27 am
    52   27   28 am
    53   27   52 1
    54   28   29 2
    55   28   30 1
@<TRIPOS>MOLECULE
CHEMBL36991__1
   52    55     0     0     0
SMALL
USER_CHARGES

@<TRIPOS>ATOM
      1 C1         -0.0184    1.5028    0.0103 C.3       1 <0>        -0.0754
      2 C2          0.0021   -0.0041    0.0020 C.2       1 <0>        -0.0073
      3 C3         -1.0705   -0.8164    0.0025 C.2       1 <0>        -0.0212
      4 N1         -0.6270   -2.0826   -0.0064 N.2       1 <0>        -0.4531
      5 C4          0.6851   -2.0676   -0.0123 C.2       1 <0>         0.2359
      6 O1          1.0981   -0.7883   -0.0131 O.3       1 <0>        -0.1906
      7 C5          1.5619   -3.2577   -0.0227 C.ar      1 <0>        -0.0211
      8 C6          1.0059   -4.5378   -0.0330 C.ar      1 <0>        -0.0700
      9 C7          1.8298   -5.6443   -0.0432 C.ar      1 <0>        -0.1205
     10 C8          3.2044   -5.4871   -0.0433 C.ar      1 <0>        -0.0983
     11 C9          3.7620   -4.2209   -0.0327 C.ar      1 <0>        -0.1203
     12 C10         2.9493   -3.1060   -0.0282 C.ar      1 <0>        -0.0891
     13 C11        -2.5133   -0.3814    0.0119 C.3       1 <0>         0.1483
     14 O2         -2.9758   -0.2362   -1.3324 O.3       1 <0>        -0.3093
     15 C12        -4.2665    0.1537   -1.5021 C.ar      1 <0>         0.1288
     16 C13        -5.0697    0.3972   -0.3974 C.ar      1 <0>        -0.2064
     17 C14        -6.3813    0.7940   -0.5726 C.ar      1 <0>        -0.0736
     18 C15        -6.8939    0.9479   -1.8474 C.ar      1 <0>        -0.1212
     19 C16        -6.0956    0.7054   -2.9500 C.ar      1 <0>        -0.0752
     20 C17        -4.7815    0.3145   -2.7802 C.ar      1 <0>        -0.1479
     21 C18        -8.3252    1.3804   -2.0356 C.3       1 <0>        -0.0758
     22 C19        -8.3923    2.9075   -2.1002 C.3       1 <0>        -0.1136
     23 C20        -9.8455    3.3465   -2.2912 C.3       1 <0>        -0.1204
     24 C21        -9.9126    4.8737   -2.3559 C.3       1 <0>         0.0397
     25 C22       -11.3399    5.3337   -2.5722 C.2       1 <0>         0.5068
     26 O3        -12.0554    5.0850   -3.5187 O.2       1 <0>        -0.4439
     27 N2        -11.6473    6.0772   -1.4897 N.am      1 <0>        -0.6856
     28 C23       -10.6105    6.1363   -0.6441 C.2       1 <0>         0.6504
     29 O4        -10.6287    6.7443    0.4072 O.2       1 <0>        -0.4692
     30 O5         -9.5489    5.4471   -1.0910 O.3       1 <0>        -0.2933
     31 H1          1.0042    1.8801    0.0026 H         1 <0>         0.0842
     32 H2         -0.5455    1.8639   -0.8728 H         1 <0>         0.0958
     33 H3         -0.5286    1.8543    0.9071 H         1 <0>         0.0935
     34 H4         -0.0670   -4.6619   -0.0326 H         1 <0>         0.1383
     35 H5          1.4008   -6.6354   -0.0508 H         1 <0>         0.1335
     36 H6          3.8450   -6.3565   -0.0513 H         1 <0>         0.1299
     37 H7          4.8357   -4.1050   -0.0321 H         1 <0>         0.1321
     38 H8          3.3858   -2.1181   -0.0249 H         1 <0>         0.1307
     39 H9         -3.1156   -1.1316    0.5243 H         1 <0>         0.0827
     40 H10        -2.6018    0.5726    0.5316 H         1 <0>         0.0821
     41 H11        -4.6700    0.2764    0.5986 H         1 <0>         0.1276
     42 H12        -7.0070    0.9836    0.2871 H         1 <0>         0.1251
     43 H13        -6.4984    0.8261   -3.9448 H         1 <0>         0.1294
     44 H14        -4.1571    0.1294   -3.6417 H         1 <0>         0.1300
     45 H15        -8.7128    0.9600   -2.9636 H         1 <0>         0.0749
     46 H16        -8.9251    1.0255   -1.1976 H         1 <0>         0.0732
     47 H17        -8.0048    3.3278   -1.1722 H         1 <0>         0.0762
     48 H18        -7.7924    3.2624   -2.9382 H         1 <0>         0.0727
     49 H19       -10.2330    2.9262   -3.2193 H         1 <0>         0.1020
     50 H20       -10.4454    2.9916   -1.4532 H         1 <0>         0.0814
     51 H21        -9.2638    5.2504   -3.1467 H         1 <0>         0.1534
     52 H22       -12.5028    6.5106   -1.3438 H         1 <0>         0.4437
@<TRIPOS>BOND
     1    1    2 1
     2    1   31 1
     3    1   32 1
     4    1   33 1
     5    2    6 1
     6    2    3 2
     7    3    4 1
     8    3   13 1
     9    4    5 2
    10    5    6 1
    11    5    7 1
    12    7   12 ar
    13    7    8 ar
    14    8    9 ar
    15    8   34 1
    16    9   10 ar
    17    9   35 1
    18   10   11 ar
    19   10   36 1
    20   11   12 ar
    21   11   37 1
    22   12   38 1
    23   13   14 1
    24   13   39 1
    25   13   40 1
    26   14   15 1
    27   15   20 ar
    28   15   16 ar
    29   16   17 ar
    30   16   41 1
    31   17   18 ar
    32   17   42 1
    33   18   19 ar
    34   18   21 1
    35   19   20 ar
    36   19   43 1
    37   20   44 1
    38   21   22 1
    39   21   45 1
    40   21   46 1
    41   22   23 1
    42   22   47 1
    43   22   48 1
    44   23   24 1
    45   23   49 1
    46   23   50 1
    47   24   30 1
    48   24   25 1
    49   24   51 1
    50   25   26 2
    51   25   27 am
    52   27   28 am
    53   27   52 1
    54   28   29 2
    55   28   30 1
@<TRIPOS>MOLECULE
CHEMBL430651
   66    68     0     0     0
SMALL
USER_CHARGES

@<TRIPOS>ATOM
      1 C1          1.6014   -2.2343    0.2908 C.3       1 <0>        -0.0844
      2 C2          1.5173   -3.6513   -0.2151 C.2       1 <0>        -0.0755
      3 C3          1.4971   -4.6823    0.6609 C.2       1 <0>        -0.1874
      4 C4          1.7191   -4.4453    2.0369 C.2       1 <0>         0.5032
      5 O1          2.0434   -3.3281    2.4215 O.co2     1 <0>        -0.6876
      6 O2          1.5870   -5.3570    2.8447 O.co2     1 <0>        -0.7072
      7 C5          1.4572   -3.9133   -1.6593 C.ar      1 <0>        -0.0508
      8 C6          2.5520   -3.5911   -2.4784 C.ar      1 <0>        -0.0786
      9 C7          2.5089   -3.8285   -3.8192 C.ar      1 <0>        -0.1348
     10 C8          1.3735   -4.3966   -4.3969 C.ar      1 <0>         0.0862
     11 C9          0.2698   -4.7245   -3.5868 C.ar      1 <0>        -0.0767
     12 C10         0.3145   -4.4877   -2.2180 C.ar      1 <0>        -0.0512
     13 C11        -0.7427   -5.2948   -4.4913 C.2       1 <0>        -0.1322
     14 C12        -0.2064   -5.2746   -5.7352 C.2       1 <0>         0.0516
     15 N1          1.0512   -4.7423   -5.6879 N.pl3     1 <0>        -0.5920
     16 H1          1.6329   -4.6247   -6.4552 H         1 <0>         0.4128
     17 C13        -2.0865   -5.7941   -4.1142 C.ar      1 <0>        -0.0185
     18 C14        -2.3958   -7.1455   -4.2546 C.ar      1 <0>        -0.1030
     19 C15        -3.6484   -7.6054   -3.9015 C.ar      1 <0>        -0.0703
     20 C16        -4.5989   -6.7291   -3.4084 C.ar      1 <0>        -0.1083
     21 C17        -4.3024   -5.3864   -3.2652 C.ar      1 <0>        -0.0755
     22 C18        -3.0477   -4.9120   -3.6105 C.ar      1 <0>         0.1038
     23 O3         -2.7534   -3.5933   -3.4648 O.3       1 <0>        -0.2985
     24 C19        -2.8095   -2.7824   -4.6400 C.3       1 <0>         0.0055
     25 C20        -2.5637   -1.3201   -4.2628 C.3       1 <0>         0.2707
     26 F1         -3.5458   -0.9002   -3.3592 F         1 <0>        -0.1972
     27 F2         -1.3021   -1.1969   -3.6710 F         1 <0>        -0.1891
     28 C21        -5.3435   -4.4388   -2.7273 C.3       1 <0>        -0.0197
     29 C22        -6.5690   -5.2332   -2.2712 C.3       1 <0>        -0.1434
     30 C23        -4.7653   -3.6666   -1.5397 C.3       1 <0>        -0.1462
     31 C24        -5.7531   -3.4548   -3.8249 C.3       1 <0>        -0.1486
     32 C25        -3.9822   -9.0670   -4.0541 C.3       1 <0>        -0.0269
     33 C26        -2.7689   -9.8113   -4.6153 C.3       1 <0>        -0.1450
     34 C27        -4.3522   -9.6509   -2.6892 C.3       1 <0>        -0.1403
     35 C28        -5.1643   -9.2228   -5.0129 C.3       1 <0>        -0.1366
     36 H2          2.6433   -1.9785    0.4833 H         1 <0>         0.0615
     37 H3          1.1933   -1.5561   -0.4586 H         1 <0>         0.0282
     38 H4          1.0284   -2.1433    1.2136 H         1 <0>         0.0895
     39 H5          1.3115   -5.6864    0.3090 H         1 <0>         0.0927
     40 H6          3.4360   -3.1509   -2.0412 H         1 <0>         0.1256
     41 H7          3.3574   -3.5754   -4.4376 H         1 <0>         0.1155
     42 H8         -0.5288   -4.7421   -1.5930 H         1 <0>         0.1197
     43 H9         -0.6987   -5.6267   -6.6296 H         1 <0>         0.1654
     44 H10        -1.6564   -7.8322   -4.6395 H         1 <0>         0.1292
     45 H11        -5.5771   -7.0957   -3.1344 H         1 <0>         0.1288
     46 H12        -2.0444   -3.1095   -5.3441 H         1 <0>         0.0810
     47 H13        -3.7925   -2.8784   -5.1011 H         1 <0>         0.0856
     48 H14        -2.6065   -0.7015   -5.1593 H         1 <0>         0.1190
     49 H15        -6.2771   -5.9342   -1.4892 H         1 <0>         0.0587
     50 H16        -7.3220   -4.5478   -1.8821 H         1 <0>         0.0575
     51 H17        -6.9809   -5.7833   -3.1172 H         1 <0>         0.0548
     52 H18        -3.8922   -3.1007   -1.8647 H         1 <0>         0.0828
     53 H19        -5.5183   -2.9812   -1.1507 H         1 <0>         0.0518
     54 H20        -4.4735   -4.3677   -0.7578 H         1 <0>         0.0529
     55 H21        -5.9535   -4.0012   -4.7465 H         1 <0>         0.0500
     56 H22        -6.6517   -2.9202   -3.5167 H         1 <0>         0.0584
     57 H23        -4.9460   -2.7418   -3.9934 H         1 <0>         0.0671
     58 H24        -1.9267   -9.7003   -3.9322 H         1 <0>         0.0611
     59 H25        -3.0103  -10.8685   -4.7257 H         1 <0>         0.0568
     60 H26        -2.5053   -9.3954   -5.5877 H         1 <0>         0.0572
     61 H27        -5.2165   -9.1207   -2.2894 H         1 <0>         0.0568
     62 H28        -4.5936  -10.7081   -2.7996 H         1 <0>         0.0571
     63 H29        -3.5100   -9.5399   -2.0061 H         1 <0>         0.0597
     64 H30        -4.9007   -8.8069   -5.9853 H         1 <0>         0.0548
     65 H31        -5.4057  -10.2800   -5.1233 H         1 <0>         0.0567
     66 H32        -6.0287   -8.6926   -4.6131 H         1 <0>         0.0561
@<TRIPOS>BOND
     1    1    2 1
     2    1   36 1
     3    1   37 1
     4    1   38 1
     5    2    3 2
     6    2    7 1
     7    3    4 1
     8    3   39 1
     9    4    5 2
    10    4    6 1
    11    7   12 ar
    12    7    8 ar
    13    8    9 ar
    14    8   40 1
    15    9   10 ar
    16    9   41 1
    17   10   15 1
    18   10   11 ar
    19   11   12 ar
    20   11   13 1
    21   12   42 1
    22   13   14 2
    23   13   17 1
    24   14   15 1
    25   14   43 1
    26   15   16 1
    27   17   22 ar
    28   17   18 ar
    29   18   19 ar
    30   18   44 1
    31   19   20 ar
    32   19   32 1
    33   20   21 ar
    34   20   45 1
    35   21   22 ar
    36   21   28 1
    37   22   23 1
    38   23   24 1
    39   24   25 1
    40   24   46 1
    41   24   47 1
    42   25   26 1
    43   25   27 1
    44   25   48 1
    45   28   29 1
    46   28   30 1
    47   28   31 1
    48   29   49 1
    49   29   50 1
    50   29   51 1
    51   30   52 1
    52   30   53 1
    53   30   54 1
    54   31   55 1
    55   31   56 1
    56   31   57 1
    57   32   33 1
    58   32   34 1
    59   32   35 1
    60   33   58 1
    61   33   59 1
    62   33   60 1
    63   34   61 1
    64   34   62 1
    65   34   63 1
    66   35   64 1
    67   35   65 1
    68   35   66 1
@<TRIPOS>MOLECULE
CHEMBL92447
   69    71     0     0     0
SMALL
USER_CHARGES

@<TRIPOS>ATOM
      1 C1          0.8509   -3.3534   -2.1888 C.3       1 <0>        -0.1464
      2 C2         -0.3489   -2.4045   -2.1536 C.3       1 <0>        -0.1243
      3 C3         -1.5895   -3.1682   -1.6863 C.3       1 <0>         0.0652
      4 O1         -2.7315   -2.3124   -1.7601 O.3       1 <0>        -0.3144
      5 C4         -3.9412   -2.8738   -1.4982 C.ar      1 <0>         0.1161
      6 C5         -4.2988   -3.1890   -0.1830 C.ar      1 <0>        -0.0307
      7 C6         -5.5411   -3.7637    0.0755 C.ar      1 <0>        -0.1000
      8 C7         -6.4118   -4.0191   -0.9653 C.ar      1 <0>        -0.0777
      9 C8         -6.0549   -3.7066   -2.2646 C.ar      1 <0>        -0.1056
     10 C9         -4.8263   -3.1305   -2.5315 C.ar      1 <0>        -0.0819
     11 C10        -4.4479   -2.7875   -3.9494 C.3       1 <0>        -0.0177
     12 C11        -5.6339   -3.0655   -4.8752 C.3       1 <0>        -0.1438
     13 C12        -4.0718   -1.3068   -4.0329 C.3       1 <0>        -0.1426
     14 C13        -3.2539   -3.6420   -4.3795 C.3       1 <0>        -0.1489
     15 C14        -7.7555   -4.6409   -0.6846 C.3       1 <0>        -0.0260
     16 C15        -7.9003   -4.8856    0.8187 C.3       1 <0>        -0.1446
     17 C16        -8.8630   -3.6966   -1.1565 C.3       1 <0>        -0.1400
     18 C17        -7.8676   -5.9717   -1.4311 C.3       1 <0>        -0.1364
     19 C18        -3.3599   -2.9131    0.9303 C.2       1 <0>        -0.1254
     20 C19        -2.7253   -3.8297    1.6999 C.2       1 <0>         0.0513
     21 N1         -1.9414   -3.1960    2.6226 N.pl3     1 <0>        -0.5924
     22 H1         -1.3913   -3.6439    3.2842 H         1 <0>         0.4126
     23 C20        -2.0442   -1.8326    2.4785 C.ar      1 <0>         0.0869
     24 C21        -2.9302   -1.5892    1.4113 C.ar      1 <0>        -0.0794
     25 C22        -3.2233   -0.2850    1.0321 C.ar      1 <0>        -0.0500
     26 C23        -2.6295    0.7772    1.7161 C.ar      1 <0>        -0.0539
     27 C24        -1.7449    0.5211    2.7765 C.ar      1 <0>        -0.0811
     28 C25        -1.4637   -0.7584    3.1520 C.ar      1 <0>        -0.1362
     29 C26        -2.9290    2.1616    1.3267 C.2       1 <0>        -0.0784
     30 C27        -4.1889    2.6404    1.4460 C.2       1 <0>        -0.1866
     31 C28        -4.4939    3.9467    0.9996 C.2       1 <0>         0.5029
     32 O2         -3.6441    4.6086    0.4157 O.co2     1 <0>        -0.6886
     33 O3         -5.6080    4.4169    1.1967 O.co2     1 <0>        -0.7075
     34 C29        -1.8332    3.0485    0.7943 C.3       1 <0>        -0.0742
     35 H2          1.7140   -2.8324   -2.6031 H         1 <0>         0.0612
     36 H3          1.0795   -3.6876   -1.1768 H         1 <0>         0.0532
     37 H4          0.6137   -4.2160   -2.8115 H         1 <0>         0.0534
     38 H5         -0.1446   -1.5860   -1.4634 H         1 <0>         0.0735
     39 H6         -0.5239   -2.0030   -3.1517 H         1 <0>         0.0712
     40 H7         -1.7443   -4.0366   -2.3266 H         1 <0>         0.0511
     41 H8         -1.4476   -3.4967   -0.6567 H         1 <0>         0.0535
     42 H9         -5.8227   -4.0096    1.0887 H         1 <0>         0.1272
     43 H10        -6.7406   -3.9094   -3.0739 H         1 <0>         0.1273
     44 H11        -6.4845   -2.4567   -4.5687 H         1 <0>         0.0583
     45 H12        -5.3602   -2.8174   -5.9007 H         1 <0>         0.0564
     46 H13        -5.9018   -4.1204   -4.8157 H         1 <0>         0.0545
     47 H14        -3.1501   -1.1342   -3.4773 H         1 <0>         0.0773
     48 H15        -3.9250   -1.0275   -5.0762 H         1 <0>         0.0506
     49 H16        -4.8725   -0.7039   -3.6046 H         1 <0>         0.0541
     50 H17        -3.5218   -4.6969   -4.3200 H         1 <0>         0.0487
     51 H18        -2.9802   -3.3939   -5.4050 H         1 <0>         0.0553
     52 H19        -2.4090   -3.4440   -3.7200 H         1 <0>         0.0703
     53 H20        -7.8204   -3.9375    1.3505 H         1 <0>         0.0607
     54 H21        -8.8722   -5.3353    1.0217 H         1 <0>         0.0562
     55 H22        -7.1113   -5.5583    1.1549 H         1 <0>         0.0569
     56 H23        -8.7599   -3.5222   -2.2276 H         1 <0>         0.0564
     57 H24        -9.8349   -4.1463   -0.9535 H         1 <0>         0.0564
     58 H25        -8.7832   -2.7485   -0.6247 H         1 <0>         0.0595
     59 H26        -7.0786   -6.6444   -1.0949 H         1 <0>         0.0546
     60 H27        -8.8395   -6.4214   -1.2281 H         1 <0>         0.0561
     61 H28        -7.7645   -5.7973   -2.5021 H         1 <0>         0.0558
     62 H29        -2.8244   -4.9004    1.5996 H         1 <0>         0.1650
     63 H30        -3.9041   -0.0948    0.2156 H         1 <0>         0.1209
     64 H31        -1.2875    1.3458    3.3026 H         1 <0>         0.1252
     65 H32        -0.7803   -0.9413    3.9680 H         1 <0>         0.1153
     66 H33        -4.9615    2.0246    1.8823 H         1 <0>         0.0928
     67 H34        -0.8797    2.5236    0.8540 H         1 <0>         0.0244
     68 H35        -2.0437    3.3025   -0.2446 H         1 <0>         0.0766
     69 H36        -1.7834    3.9610    1.3885 H         1 <0>         0.0702
@<TRIPOS>BOND
     1    1    2 1
     2    1   35 1
     3    1   36 1
     4    1   37 1
     5    2    3 1
     6    2   38 1
     7    2   39 1
     8    3    4 1
     9    3   40 1
    10    3   41 1
    11    4    5 1
    12    5   10 ar
    13    5    6 ar
    14    6    7 ar
    15    6   19 1
    16    7    8 ar
    17    7   42 1
    18    8    9 ar
    19    8   15 1
    20    9   10 ar
    21    9   43 1
    22   10   11 1
    23   11   12 1
    24   11   13 1
    25   11   14 1
    26   12   44 1
    27   12   45 1
    28   12   46 1
    29   13   47 1
    30   13   48 1
    31   13   49 1
    32   14   50 1
    33   14   51 1
    34   14   52 1
    35   15   16 1
    36   15   17 1
    37   15   18 1
    38   16   53 1
    39   16   54 1
    40   16   55 1
    41   17   56 1
    42   17   57 1
    43   17   58 1
    44   18   59 1
    45   18   60 1
    46   18   61 1
    47   19   24 1
    48   19   20 2
    49   20   21 1
    50   20   62 1
    51   21   22 1
    52   21   23 1
    53   23   28 ar
    54   23   24 ar
    55   24   25 ar
    56   25   26 ar
    57   25   63 1
    58   26   27 ar
    59   26   29 1
    60   27   28 ar
    61   27   64 1
    62   28   65 1
    63   29   30 2
    64   29   34 1
    65   30   31 1
    66   30   66 1
    67   31   32 2
    68   31   33 1
    69   34   67 1
    70   34   68 1
    71   34   69 1
@<TRIPOS>MOLECULE
CHEMBL312395
   63    65     0     0     0
SMALL
USER_CHARGES

@<TRIPOS>ATOM
      1 C1          1.2588    2.3775   -0.4948 C.3       1 <0>        -0.0941
      2 C2          1.7762    2.5090   -1.9041 C.2       1 <0>        -0.0911
      3 C3          2.5894    3.5417   -2.2338 C.2       1 <0>        -0.1848
      4 C4          2.8533    4.5621   -1.2917 C.2       1 <0>         0.4999
      5 O1          2.2690    4.5677   -0.2148 O.co2     1 <0>        -0.6863
      6 O2          3.6664    5.4409   -1.5521 O.co2     1 <0>        -0.7063
      7 C5          1.4007    1.5224   -2.9157 C.2       1 <0>        -0.1017
      8 C6          0.5995    0.5049   -2.5909 C.2       1 <0>        -0.1648
      9 C7          0.1201   -0.4465   -3.6567 C.3       1 <0>        -0.0172
     10 C8          0.3986   -1.9024   -3.2294 C.3       1 <0>        -0.1120
     11 C9         -0.9326   -2.3725   -2.5921 C.3       1 <0>        -0.1247
     12 C10        -1.9987   -1.7072   -3.4976 C.3       1 <0>        -0.1181
     13 C11        -1.4041   -0.3224   -3.8272 C.3       1 <0>        -0.0428
     14 H1         -1.7971    0.4261   -3.1391 H         1 <0>         0.0815
     15 C12        -1.7355    0.0569   -5.2475 C.ar      1 <0>        -0.0584
     16 C13        -1.6175   -0.8769   -6.2604 C.ar      1 <0>        -0.1163
     17 C14        -1.9197   -0.5212   -7.5583 C.ar      1 <0>        -0.1205
     18 C15        -2.3435    0.7676   -7.8567 C.ar      1 <0>        -0.0705
     19 C16        -2.4658    1.6958   -6.8476 C.ar      1 <0>        -0.0570
     20 C17        -2.1629    1.3351   -5.5408 C.ar      1 <0>        -0.1145
     21 C18        -2.9347    3.1057   -7.0954 C.3       1 <0>        -0.0230
     22 C19        -2.8142    3.4595   -8.5763 C.3       1 <0>        -0.1117
     23 C20        -3.4963    2.3568   -9.3945 C.3       1 <0>        -0.1105
     24 C21        -2.6491    1.0898   -9.2961 C.3       1 <0>        -0.0219
     25 C22        -1.3375    1.2997  -10.0556 C.3       1 <0>        -0.1391
     26 C23        -3.4130   -0.0780   -9.9234 C.3       1 <0>        -0.1402
     27 C24        -2.0798    4.0732   -6.2744 C.3       1 <0>        -0.1442
     28 C25        -4.3967    3.2344   -6.6633 C.3       1 <0>        -0.1379
     29 C26         0.8221   -0.1449   -4.9822 C.3       1 <0>        -0.1425
     30 H2          0.3765    3.0056   -0.3716 H         1 <0>         0.0597
     31 H3          0.9948    1.3380   -0.3002 H         1 <0>         0.0286
     32 H4          2.0308    2.6937    0.2066 H         1 <0>         0.0920
     33 H5          3.0359    3.5851   -3.2162 H         1 <0>         0.0938
     34 H6          1.7715    1.6167   -3.9256 H         1 <0>         0.1106
     35 H7          0.2950    0.3638   -1.5643 H         1 <0>         0.1148
     36 H8          0.6431   -2.5146   -4.0974 H         1 <0>         0.0646
     37 H9          1.2053   -1.9375   -2.4972 H         1 <0>         0.0682
     38 H10        -1.0168   -3.4586   -2.6303 H         1 <0>         0.0635
     39 H11        -1.0181   -2.0132   -1.5666 H         1 <0>         0.0678
     40 H12        -2.1413   -2.2878   -4.4089 H         1 <0>         0.0696
     41 H13        -2.9415   -1.5997   -2.9611 H         1 <0>         0.0638
     42 H14        -1.2894   -1.8811   -6.0361 H         1 <0>         0.1188
     43 H15        -1.8258   -1.2507   -8.3492 H         1 <0>         0.1165
     44 H16        -2.2583    2.0629   -4.7485 H         1 <0>         0.1205
     45 H17        -3.3044    4.4143   -8.7666 H         1 <0>         0.0656
     46 H18        -1.7621    3.5248   -8.8537 H         1 <0>         0.0688
     47 H19        -4.4917    2.1648   -8.9937 H         1 <0>         0.0674
     48 H20        -3.5732    2.6671  -10.4365 H         1 <0>         0.0642
     49 H21        -0.7383    0.3907  -10.0040 H         1 <0>         0.0547
     50 H22        -1.5546    1.5332  -11.0979 H         1 <0>         0.0555
     51 H23        -0.7853    2.1249   -9.6058 H         1 <0>         0.0590
     52 H24        -4.3439   -0.2374   -9.3792 H         1 <0>         0.0550
     53 H25        -3.6360    0.1515  -10.9654 H         1 <0>         0.0553
     54 H26        -2.8034   -0.9801   -9.8725 H         1 <0>         0.0574
     55 H27        -1.0356    3.9778   -6.5722 H         1 <0>         0.0576
     56 H28        -2.4162    5.0949   -6.4512 H         1 <0>         0.0573
     57 H29        -2.1787    3.8363   -5.2151 H         1 <0>         0.0611
     58 H30        -4.4838    3.0018   -5.6020 H         1 <0>         0.0561
     59 H31        -4.7398    4.2537   -6.8411 H         1 <0>         0.0569
     60 H32        -5.0083    2.5396   -7.2389 H         1 <0>         0.0557
     61 H33         1.9014   -0.1472   -4.8305 H         1 <0>         0.0523
     62 H34         0.5566   -0.9064   -5.7155 H         1 <0>         0.0587
     63 H35         0.5082    0.8339   -5.3451 H         1 <0>         0.0596
@<TRIPOS>BOND
     1    1    2 1
     2    1   30 1
     3    1   31 1
     4    1   32 1
     5    2    3 2
     6    2    7 1
     7    3    4 1
     8    3   33 1
     9    4    5 2
    10    4    6 1
    11    7    8 2
    12    7   34 1
    13    8    9 1
    14    8   35 1
    15    9   13 1
    16    9   10 1
    17    9   29 1
    18   10   11 1
    19   10   36 1
    20   10   37 1
    21   11   12 1
    22   11   38 1
    23   11   39 1
    24   12   13 1
    25   12   40 1
    26   12   41 1
    27   13   14 1
    28   13   15 1
    29   15   20 ar
    30   15   16 ar
    31   16   17 ar
    32   16   42 1
    33   17   18 ar
    34   17   43 1
    35   18   24 1
    36   18   19 ar
    37   19   20 ar
    38   19   21 1
    39   20   44 1
    40   21   22 1
    41   21   27 1
    42   21   28 1
    43   22   23 1
    44   22   45 1
    45   22   46 1
    46   23   24 1
    47   23   47 1
    48   23   48 1
    49   24   25 1
    50   24   26 1
    51   25   49 1
    52   25   50 1
    53   25   51 1
    54   26   52 1
    55   26   53 1
    56   26   54 1
    57   27   55 1
    58   27   56 1
    59   27   57 1
    60   28   58 1
    61   28   59 1
    62   28   60 1
    63   29   61 1
    64   29   62 1
    65   29   63 1
@<TRIPOS>MOLECULE
CHEMBL392858
   79    84     0     0     0
SMALL
USER_CHARGES

@<TRIPOS>ATOM
      1 C1          0.0146    1.4847    0.0464 C.3       1 <0>        -0.1399
      2 C2          0.0414   -0.0450    0.0476 C.3       1 <0>        -0.0198
      3 C3         -1.3913   -0.5740    0.0380 C.3       1 <0>        -0.1113
      4 C4         -2.0355   -0.2465    1.3903 C.3       1 <0>        -0.1113
      5 C5         -1.3800   -1.1169    2.4601 C.3       1 <0>        -0.0236
      6 C6          0.1211   -1.0134    2.3840 C.ar      1 <0>        -0.0277
      7 C7          0.7756   -0.5283    1.2717 C.ar      1 <0>        -0.0802
      8 C8          2.1622   -0.4805    1.2493 C.ar      1 <0>        -0.0568
      9 C9          2.9045   -0.9054    2.3481 C.ar      1 <0>        -0.1340
     10 C10         2.2327   -1.3670    3.4874 C.ar      1 <0>         0.2027
     11 C11         0.8523   -1.4274    3.4922 C.ar      1 <0>        -0.1433
     12 N1          2.9625   -1.7301    4.6238 N.pl3     1 <0>        -0.6170
     13 C12         3.7881   -0.7711    5.2327 C.ar      1 <0>         0.1290
     14 C13         3.5550   -0.4115    6.5494 C.ar      1 <0>        -0.1069
     15 C14         4.3269    0.5654    7.1532 C.ar      1 <0>        -0.1130
     16 C15         5.3386    1.1937    6.4386 C.ar      1 <0>         0.1413
     17 C16         5.5942    0.8293    5.1267 C.ar      1 <0>        -0.1194
     18 C17         4.8348   -0.1756    4.5165 C.ar      1 <0>         0.1212
     19 N2          5.1644   -0.5797    3.2640 N.2       1 <0>        -0.5070
     20 C18         4.3753   -0.8925    2.2996 C.2       1 <0>         0.3231
     21 C19         5.0051   -1.2766    1.0183 C.ar      1 <0>        -0.0920
     22 C20         6.2882   -0.8198    0.7062 C.ar      1 <0>        -0.0818
     23 C21         6.8750   -1.1772   -0.4863 C.ar      1 <0>        -0.0977
     24 C22         6.1870   -1.9975   -1.3857 C.ar      1 <0>        -0.1073
     25 C23         4.9030   -2.4543   -1.0729 C.ar      1 <0>        -0.0939
     26 C24         4.3194   -2.1011    0.1225 C.ar      1 <0>        -0.1013
     27 C25         6.8152   -2.3804   -2.6642 C.2       1 <0>         0.5169
     28 O1          7.9381   -1.9804   -2.9378 O.co2     1 <0>        -0.6844
     29 O2          6.2132   -3.0979   -3.4507 O.co2     1 <0>        -0.6845
     30 N3          6.1025    2.1992    7.0461 N.am      1 <0>        -0.6726
     31 C26         5.5293    3.0399    7.9299 C.2       1 <0>         0.5137
     32 O3          4.3749    2.8746    8.2632 O.2       1 <0>        -0.5094
     33 C27         6.3228    4.1852    8.5042 C.3       1 <0>        -0.1012
     34 C28         5.4576    4.9669    9.4589 C.ar      1 <0>        -0.0691
     35 C29         4.6960    6.0231    8.9950 C.ar      1 <0>        -0.1035
     36 C30         3.9024    6.7401    9.8708 C.ar      1 <0>        -0.1191
     37 C31         3.8701    6.4006   11.2104 C.ar      1 <0>        -0.1193
     38 C32         4.6310    5.3437   11.6741 C.ar      1 <0>        -0.1200
     39 C33         5.4213    4.6240   10.7976 C.ar      1 <0>        -0.1045
     40 C34         2.8670   -3.0863    5.1694 C.3       1 <0>         0.1119
     41 C35        -1.8478   -0.6552    3.8418 C.3       1 <0>        -0.1411
     42 C36        -1.7962   -2.5740    2.2490 C.3       1 <0>        -0.1391
     43 C37         0.7690   -0.5380   -1.2048 C.3       1 <0>        -0.1469
     44 H1          1.0357    1.8660    0.0341 H         1 <0>         0.0566
     45 H2         -0.5158    1.8381   -0.8379 H         1 <0>         0.0588
     46 H3         -0.4951    1.8399    0.9420 H         1 <0>         0.0562
     47 H4         -1.9545   -0.0947   -0.7628 H         1 <0>         0.0680
     48 H5         -1.3833   -1.6535   -0.1132 H         1 <0>         0.0703
     49 H6         -1.8783    0.8059    1.6264 H         1 <0>         0.0691
     50 H7         -3.1039   -0.4582    1.3487 H         1 <0>         0.0668
     51 H8          2.6705   -0.1106    0.3712 H         1 <0>         0.1356
     52 H9          0.3362   -1.7997    4.3648 H         1 <0>         0.1261
     53 H10         2.7671   -0.8954    7.1075 H         1 <0>         0.1259
     54 H11         4.1423    0.8398    8.1813 H         1 <0>         0.1398
     55 H12         6.3802    1.3219    4.5736 H         1 <0>         0.1331
     56 H13         6.8195   -0.1860    1.4008 H         1 <0>         0.1237
     57 H14         7.8667   -0.8238   -0.7276 H         1 <0>         0.1298
     58 H15         4.3711   -3.0879   -1.7671 H         1 <0>         0.1299
     59 H16         3.3294   -2.4574    0.3662 H         1 <0>         0.1181
     60 H17         7.0439    2.2902    6.8304 H         1 <0>         0.4116
     61 H18         7.1906    3.7953    9.0362 H         1 <0>         0.1068
     62 H19         6.6547    4.8381    7.6969 H         1 <0>         0.1074
     63 H20         4.7213    6.2884    7.9484 H         1 <0>         0.1201
     64 H21         3.3080    7.5658    9.5085 H         1 <0>         0.1219
     65 H22         3.2506    6.9612   11.8947 H         1 <0>         0.1207
     66 H23         4.6059    5.0787   12.7208 H         1 <0>         0.1215
     67 H24         6.0129    3.7960   11.1592 H         1 <0>         0.1198
     68 H25         3.6260   -3.7179    4.7078 H         1 <0>         0.0446
     69 H26         3.0259   -3.0563    6.2474 H         1 <0>         0.0643
     70 H27         1.8782   -3.4938    4.9591 H         1 <0>         0.0647
     71 H28        -2.9317   -0.7485    3.9083 H         1 <0>         0.0579
     72 H29        -1.3820   -1.2742    4.6086 H         1 <0>         0.0575
     73 H30        -1.5627    0.3860    3.9926 H         1 <0>         0.0564
     74 H31        -1.4743   -2.9044    1.2614 H         1 <0>         0.0613
     75 H32        -1.3303   -3.1990    3.0110 H         1 <0>         0.0550
     76 H33        -2.8804   -2.6568    2.3243 H         1 <0>         0.0583
     77 H34         1.7895   -0.1548   -1.2066 H         1 <0>         0.0632
     78 H35         0.7902   -1.6278   -1.2074 H         1 <0>         0.0600
     79 H36         0.2459   -0.1826   -2.0925 H         1 <0>         0.0593
@<TRIPOS>BOND
     1    1    2 1
     2    1   44 1
     3    1   45 1
     4    1   46 1
     5    2    7 1
     6    2    3 1
     7    2   43 1
     8    3    4 1
     9    3   47 1
    10    3   48 1
    11    4    5 1
    12    4   49 1
    13    4   50 1
    14    5    6 1
    15    5   41 1
    16    5   42 1
    17    6   11 ar
    18    6    7 ar
    19    7    8 ar
    20    8    9 ar
    21    8   51 1
    22    9   20 1
    23    9   10 ar
    24   10   11 ar
    25   10   12 1
    26   11   52 1
    27   12   13 1
    28   12   40 1
    29   13   18 ar
    30   13   14 ar
    31   14   15 ar
    32   14   53 1
    33   15   16 ar
    34   15   54 1
    35   16   17 ar
    36   16   30 1
    37   17   18 ar
    38   17   55 1
    39   18   19 1
    40   19   20 2
    41   20   21 1
    42   21   26 ar
    43   21   22 ar
    44   22   23 ar
    45   22   56 1
    46   23   24 ar
    47   23   57 1
    48   24   25 ar
    49   24   27 1
    50   25   26 ar
    51   25   58 1
    52   26   59 1
    53   27   28 2
    54   27   29 1
    55   30   31 am
    56   30   60 1
    57   31   32 2
    58   31   33 1
    59   33   34 1
    60   33   61 1
    61   33   62 1
    62   34   39 ar
    63   34   35 ar
    64   35   36 ar
    65   35   63 1
    66   36   37 ar
    67   36   64 1
    68   37   38 ar
    69   37   65 1
    70   38   39 ar
    71   38   66 1
    72   39   67 1
    73   40   68 1
    74   40   69 1
    75   40   70 1
    76   41   71 1
    77   41   72 1
    78   41   73 1
    79   42   74 1
    80   42   75 1
    81   42   76 1
    82   43   77 1
    83   43   78 1
    84   43   79 1
@<TRIPOS>MOLECULE
CHEMBL39315
   58    62     0     0     0
SMALL
USER_CHARGES

@<TRIPOS>ATOM
      1 C1         -0.0184    1.5028    0.0103 C.3       1 <0>        -0.0755
      2 C2          0.0021   -0.0041    0.0020 C.2       1 <0>        -0.0066
      3 C3         -1.0706   -0.8165    0.0025 C.2       1 <0>        -0.0207
      4 N1         -0.6273   -2.0825   -0.0072 N.2       1 <0>        -0.4508
      5 C4          0.6850   -2.0676   -0.0136 C.2       1 <0>         0.2343
      6 O1          1.0981   -0.7883   -0.0131 O.3       1 <0>        -0.1907
      7 C5          1.5614   -3.2573   -0.0245 C.ar      1 <0>        -0.0132
      8 C6          0.9921   -4.5434   -0.0347 C.ar      1 <0>        -0.0769
      9 C7          1.7760   -5.6514   -0.0453 C.ar      1 <0>        -0.1026
     10 C8          3.1770   -5.5225   -0.0458 C.ar      1 <0>        -0.0382
     11 C9          4.0089   -6.6546   -0.0567 C.ar      1 <0>        -0.1092
     12 C10         5.3613   -6.4984   -0.0573 C.ar      1 <0>        -0.1066
     13 C11         5.9375   -5.2296   -0.0471 C.ar      1 <0>        -0.1158
     14 C12         5.1643   -4.1097   -0.0363 C.ar      1 <0>        -0.0995
     15 C13         3.7631   -4.2313   -0.0355 C.ar      1 <0>        -0.0562
     16 C14         2.9368   -3.0974   -0.0304 C.ar      1 <0>        -0.0667
     17 C15        -2.5134   -0.3814    0.0126 C.3       1 <0>         0.1484
     18 O2         -2.9763   -0.2354   -1.3314 O.3       1 <0>        -0.3091
     19 C16        -4.2671    0.1547   -1.5005 C.ar      1 <0>         0.1288
     20 C17        -5.0699    0.3977   -0.3954 C.ar      1 <0>        -0.2069
     21 C18        -6.3816    0.7946   -0.5699 C.ar      1 <0>        -0.0746
     22 C19        -6.8946    0.9492   -1.8445 C.ar      1 <0>        -0.1211
     23 C20        -6.0967    0.7072   -2.9474 C.ar      1 <0>        -0.0743
     24 C21        -4.7826    0.3161   -2.7783 C.ar      1 <0>        -0.1472
     25 C22        -8.3259    1.3819   -2.0319 C.3       1 <0>        -0.0758
     26 C23        -8.3929    2.9090   -2.0957 C.3       1 <0>        -0.1136
     27 C24        -9.8461    3.3483   -2.2860 C.3       1 <0>        -0.1205
     28 C25        -9.9132    4.8755   -2.3498 C.3       1 <0>         0.0398
     29 C26       -11.3471    5.3376   -2.5110 C.2       1 <0>         0.5069
     30 O3        -12.2680    5.1531   -1.7445 O.2       1 <0>        -0.4442
     31 N2        -11.3833    5.9982   -3.6864 N.am      1 <0>        -0.6856
     32 C27       -10.1755    6.0046   -4.2650 C.2       1 <0>         0.6503
     33 O4         -9.9393    6.5347   -5.3319 O.2       1 <0>        -0.4689
     34 O5         -9.2557    5.3588   -3.5310 O.3       1 <0>        -0.2932
     35 H1          1.0042    1.8801    0.0026 H         1 <0>         0.0842
     36 H2         -0.5455    1.8639   -0.8728 H         1 <0>         0.0961
     37 H3         -0.5286    1.8543    0.9071 H         1 <0>         0.0935
     38 H4         -0.0825   -4.6506   -0.0337 H         1 <0>         0.1394
     39 H5          1.3241   -6.6323   -0.0531 H         1 <0>         0.1375
     40 H6          3.5773   -7.6446   -0.0644 H         1 <0>         0.1311
     41 H7          5.9973   -7.3712   -0.0654 H         1 <0>         0.1265
     42 H8          7.0133   -5.1336   -0.0473 H         1 <0>         0.1267
     43 H9          5.6243   -3.1326   -0.0281 H         1 <0>         0.1302
     44 H10         3.3700   -2.1081   -0.0266 H         1 <0>         0.1367
     45 H11        -3.1156   -1.1317    0.5248 H         1 <0>         0.0828
     46 H12        -2.6016    0.5724    0.5328 H         1 <0>         0.0819
     47 H13        -4.6699    0.2763    0.6004 H         1 <0>         0.1275
     48 H14        -7.0069    0.9839    0.2901 H         1 <0>         0.1251
     49 H15        -6.4998    0.8284   -3.9420 H         1 <0>         0.1293
     50 H16        -4.1584    0.1315   -3.6401 H         1 <0>         0.1302
     51 H17        -8.7138    0.9620   -2.9600 H         1 <0>         0.0739
     52 H18        -8.9255    1.0266   -1.1938 H         1 <0>         0.0742
     53 H19        -8.0050    3.3289   -1.1676 H         1 <0>         0.0721
     54 H20        -7.7933    3.2643   -2.9338 H         1 <0>         0.0768
     55 H21       -10.2340    2.9284   -3.2141 H         1 <0>         0.0816
     56 H22       -10.4458    2.9930   -1.4479 H         1 <0>         0.1017
     57 H23        -9.4664    5.3140   -1.4575 H         1 <0>         0.1531
     58 H24       -12.1763    6.4119   -4.0617 H         1 <0>         0.4437
@<TRIPOS>BOND
     1    1    2 1
     2    1   35 1
     3    1   36 1
     4    1   37 1
     5    2    6 1
     6    2    3 2
     7    3    4 1
     8    3   17 1
     9    4    5 2
    10    5    6 1
    11    5    7 1
    12    7   16 ar
    13    7    8 ar
    14    8    9 ar
    15    8   38 1
    16    9   10 ar
    17    9   39 1
    18   10   15 ar
    19   10   11 ar
    20   11   12 ar
    21   11   40 1
    22   12   13 ar
    23   12   41 1
    24   13   14 ar
    25   13   42 1
    26   14   15 ar
    27   14   43 1
    28   15   16 ar
    29   16   44 1
    30   17   18 1
    31   17   45 1
    32   17   46 1
    33   18   19 1
    34   19   24 ar
    35   19   20 ar
    36   20   21 ar
    37   20   47 1
    38   21   22 ar
    39   21   48 1
    40   22   23 ar
    41   22   25 1
    42   23   24 ar
    43   23   49 1
    44   24   50 1
    45   25   26 1
    46   25   51 1
    47   25   52 1
    48   26   27 1
    49   26   53 1
    50   26   54 1
    51   27   28 1
    52   27   55 1
    53   27   56 1
    54   28   34 1
    55   28   29 1
    56   28   57 1
    57   29   30 2
    58   29   31 am
    59   31   32 am
    60   31   58 1
    61   32   33 2
    62   32   34 1
@<TRIPOS>MOLECULE
CHEMBL39315__1
   58    62     0     0     0
SMALL
USER_CHARGES

@<TRIPOS>ATOM
      1 C1         -0.0184    1.5028    0.0103 C.3       1 <0>        -0.0755
      2 C2          0.0021   -0.0041    0.0020 C.2       1 <0>        -0.0066
      3 C3         -1.0706   -0.8165    0.0025 C.2       1 <0>        -0.0206
      4 N1         -0.6273   -2.0825   -0.0072 N.2       1 <0>        -0.4507
      5 C4          0.6850   -2.0676   -0.0136 C.2       1 <0>         0.2342
      6 O1          1.0981   -0.7883   -0.0131 O.3       1 <0>        -0.1908
      7 C5          1.5614   -3.2573   -0.0245 C.ar      1 <0>        -0.0131
      8 C6          0.9921   -4.5434   -0.0347 C.ar      1 <0>        -0.0769
      9 C7          1.7760   -5.6514   -0.0453 C.ar      1 <0>        -0.1027
     10 C8          3.1770   -5.5225   -0.0458 C.ar      1 <0>        -0.0382
     11 C9          4.0089   -6.6546   -0.0567 C.ar      1 <0>        -0.1092
     12 C10         5.3613   -6.4984   -0.0573 C.ar      1 <0>        -0.1066
     13 C11         5.9375   -5.2296   -0.0471 C.ar      1 <0>        -0.1159
     14 C12         5.1643   -4.1097   -0.0363 C.ar      1 <0>        -0.0995
     15 C13         3.7631   -4.2313   -0.0355 C.ar      1 <0>        -0.0562
     16 C14         2.9368   -3.0974   -0.0304 C.ar      1 <0>        -0.0667
     17 C15        -2.5134   -0.3814    0.0126 C.3       1 <0>         0.1482
     18 O2         -2.9763   -0.2354   -1.3314 O.3       1 <0>        -0.3092
     19 C16        -4.2671    0.1547   -1.5005 C.ar      1 <0>         0.1289
     20 C17        -5.0699    0.3977   -0.3954 C.ar      1 <0>        -0.2063
     21 C18        -6.3816    0.7946   -0.5699 C.ar      1 <0>        -0.0736
     22 C19        -6.8946    0.9492   -1.8445 C.ar      1 <0>        -0.1211
     23 C20        -6.0967    0.7072   -2.9474 C.ar      1 <0>        -0.0752
     24 C21        -4.7826    0.3161   -2.7783 C.ar      1 <0>        -0.1479
     25 C22        -8.3259    1.3819   -2.0319 C.3       1 <0>        -0.0758
     26 C23        -8.3929    2.9090   -2.0957 C.3       1 <0>        -0.1136
     27 C24        -9.8461    3.3483   -2.2860 C.3       1 <0>        -0.1205
     28 C25        -9.9132    4.8755   -2.3498 C.3       1 <0>         0.0397
     29 C26       -11.3406    5.3356   -2.5654 C.2       1 <0>         0.5069
     30 O3        -12.0564    5.0875   -3.5118 O.2       1 <0>        -0.4439
     31 N2        -11.6475    6.0787   -1.4824 N.am      1 <0>        -0.6856
     32 C27       -10.6104    6.1372   -0.6371 C.2       1 <0>         0.6504
     33 O4        -10.6282    6.7447    0.4145 O.2       1 <0>        -0.4693
     34 O5         -9.5490    5.4482   -1.0848 O.3       1 <0>        -0.2933
     35 H1          1.0042    1.8801    0.0026 H         1 <0>         0.0842
     36 H2         -0.5455    1.8639   -0.8728 H         1 <0>         0.0960
     37 H3         -0.5286    1.8543    0.9071 H         1 <0>         0.0937
     38 H4         -0.0825   -4.6506   -0.0337 H         1 <0>         0.1395
     39 H5          1.3241   -6.6323   -0.0531 H         1 <0>         0.1375
     40 H6          3.5773   -7.6446   -0.0644 H         1 <0>         0.1311
     41 H7          5.9973   -7.3712   -0.0654 H         1 <0>         0.1264
     42 H8          7.0133   -5.1336   -0.0473 H         1 <0>         0.1266
     43 H9          5.6243   -3.1326   -0.0281 H         1 <0>         0.1302
     44 H10         3.3700   -2.1081   -0.0266 H         1 <0>         0.1366
     45 H11        -3.1156   -1.1317    0.5248 H         1 <0>         0.0828
     46 H12        -2.6016    0.5724    0.5328 H         1 <0>         0.0821
     47 H13        -4.6699    0.2763    0.6004 H         1 <0>         0.1276
     48 H14        -7.0069    0.9839    0.2901 H         1 <0>         0.1251
     49 H15        -6.4998    0.8284   -3.9420 H         1 <0>         0.1293
     50 H16        -4.1584    0.1315   -3.6401 H         1 <0>         0.1300
     51 H17        -8.7138    0.9620   -2.9600 H         1 <0>         0.0749
     52 H18        -8.9255    1.0266   -1.1938 H         1 <0>         0.0732
     53 H19        -8.0050    3.3289   -1.1676 H         1 <0>         0.0762
     54 H20        -7.7933    3.2643   -2.9338 H         1 <0>         0.0727
     55 H21       -10.2340    2.9284   -3.2141 H         1 <0>         0.1020
     56 H22       -10.4458    2.9930   -1.4479 H         1 <0>         0.0813
     57 H23        -9.2646    5.2525   -3.1406 H         1 <0>         0.1533
     58 H24       -12.5029    6.5120   -1.3360 H         1 <0>         0.4437
@<TRIPOS>BOND
     1    1    2 1
     2    1   35 1
     3    1   36 1
     4    1   37 1
     5    2    6 1
     6    2    3 2
     7    3    4 1
     8    3   17 1
     9    4    5 2
    10    5    6 1
    11    5    7 1
    12    7   16 ar
    13    7    8 ar
    14    8    9 ar
    15    8   38 1
    16    9   10 ar
    17    9   39 1
    18   10   15 ar
    19   10   11 ar
    20   11   12 ar
    21   11   40 1
    22   12   13 ar
    23   12   41 1
    24   13   14 ar
    25   13   42 1
    26   14   15 ar
    27   14   43 1
    28   15   16 ar
    29   16   44 1
    30   17   18 1
    31   17   45 1
    32   17   46 1
    33   18   19 1
    34   19   24 ar
    35   19   20 ar
    36   20   21 ar
    37   20   47 1
    38   21   22 ar
    39   21   48 1
    40   22   23 ar
    41   22   25 1
    42   23   24 ar
    43   23   49 1
    44   24   50 1
    45   25   26 1
    46   25   51 1
    47   25   52 1
    48   26   27 1
    49   26   53 1
    50   26   54 1
    51   27   28 1
    52   27   55 1
    53   27   56 1
    54   28   34 1
    55   28   29 1
    56   28   57 1
    57   29   30 2
    58   29   31 am
    59   31   32 am
    60   31   58 1
    61   32   33 2
    62   32   34 1
@<TRIPOS>MOLECULE
CHEMBL554740
   56    60     0     0     0
SMALL
USER_CHARGES

@<TRIPOS>ATOM
      1 C1         -0.0184    1.5028    0.0103 C.3       1 <0>        -0.1267
      2 C2          0.0021   -0.0041    0.0020 C.ar      1 <0>        -0.0457
      3 C3          0.0057   -0.6876   -1.1953 C.ar      1 <0>        -0.1451
      4 C4          0.0245   -2.0761   -1.2038 C.ar      1 <0>         0.1136
      5 C5          0.0397   -2.7810   -0.0070 C.ar      1 <0>        -0.1014
      6 C6          0.0357   -2.1039    1.1935 C.ar      1 <0>        -0.0841
      7 C7          0.0231   -0.7087    1.2056 C.ar      1 <0>        -0.0469
      8 C8          0.0259    0.0225    2.4940 C.ar      1 <0>        -0.0573
      9 C9          1.1340   -0.0588    3.3393 C.ar      1 <0>        -0.0905
     10 C10         1.1420    0.6134    4.5275 C.ar      1 <0>        -0.1110
     11 C11         0.0374    1.3882    4.9037 C.ar      1 <0>        -0.0130
     12 C12        -1.0765    1.4727    4.0589 C.ar      1 <0>        -0.1146
     13 C13        -1.0782    0.7973    2.8589 C.ar      1 <0>        -0.0170
     14 Cl1        -2.4529    0.9028    1.8040 Cl        1 <0>        -0.0670
     15 C14         0.0470    2.1105    6.1826 C.2       1 <0>        -0.1264
     16 C15        -1.0206    2.8586    6.5451 C.2       1 <0>        -0.1501
     17 C16        -1.0113    3.5543    7.7766 C.2       1 <0>         0.4982
     18 O1         -0.0366    3.4794    8.5151 O.co2     1 <0>        -0.6923
     19 O2         -1.9780    4.2316    8.1048 O.co2     1 <0>        -0.6953
     20 C17         0.0600   -4.2878   -0.0212 C.3       1 <0>         0.0000
     21 C18         1.3126   -4.7740   -0.7531 C.3       1 <0>        -0.1003
     22 C19         1.3332   -6.3038   -0.7675 C.3       1 <0>        -0.0841
     23 C20         0.0875   -6.8239   -1.4876 C.3       1 <0>        -0.1062
     24 C21        -1.1650   -6.3377   -0.7558 C.3       1 <0>        -0.0857
     25 C22        -1.1857   -4.8079   -0.7414 C.3       1 <0>        -0.1008
     26 C23        -1.1512   -6.8611    0.6819 C.3       1 <0>        -0.1092
     27 C24         0.0945   -6.3410    1.4020 C.3       1 <0>        -0.0855
     28 C25         1.3471   -6.8272    0.6702 C.3       1 <0>        -0.1082
     29 C26         0.0739   -4.8112    1.4164 C.3       1 <0>        -0.1069
     30 O3          0.0276   -2.7465   -2.3853 O.3       1 <0>        -0.4918
     31 H1          1.0042    1.8801    0.0026 H         1 <0>         0.0699
     32 H2         -0.5455    1.8639   -0.8728 H         1 <0>         0.0657
     33 H3         -0.5286    1.8543    0.9071 H         1 <0>         0.0789
     34 H4         -0.0064   -0.1426   -2.1276 H         1 <0>         0.1268
     35 H5          0.0467   -2.6525    2.1236 H         1 <0>         0.1313
     36 H6          1.9873   -0.6555    3.0525 H         1 <0>         0.1289
     37 H7          2.0012    0.5475    5.1785 H         1 <0>         0.1327
     38 H8         -1.9299    2.0691    4.3459 H         1 <0>         0.1395
     39 H9          0.9062    2.0446    6.8336 H         1 <0>         0.1335
     40 H10        -1.8798    2.9246    5.8941 H         1 <0>         0.1014
     41 H11         1.3027   -4.4011   -1.7773 H         1 <0>         0.0643
     42 H12         2.2000   -4.4035   -0.2400 H         1 <0>         0.0603
     43 H13         2.2256   -6.6502   -1.2889 H         1 <0>         0.0678
     44 H14         0.0777   -6.4510   -2.5118 H         1 <0>         0.0615
     45 H15         0.1023   -7.9138   -1.4979 H         1 <0>         0.0586
     46 H16        -2.0524   -6.7082   -1.2688 H         1 <0>         0.0674
     47 H17        -2.0780   -4.4615   -0.2200 H         1 <0>         0.0576
     48 H18        -1.1955   -4.4350   -1.7656 H         1 <0>         0.0811
     49 H19        -2.0435   -6.5147    1.2032 H         1 <0>         0.0611
     50 H20        -1.1364   -7.9509    0.6716 H         1 <0>         0.0594
     51 H21         0.1044   -6.7138    2.4262 H         1 <0>         0.0695
     52 H22         1.3618   -7.9171    0.6599 H         1 <0>         0.0601
     53 H23         2.2345   -6.4567    1.1832 H         1 <0>         0.0609
     54 H24         0.9613   -4.4406    1.9295 H         1 <0>         0.0650
     55 H25        -0.8185   -4.4647    1.9378 H         1 <0>         0.0659
     56 H26         0.9118   -2.9287   -2.7318 H         1 <0>         0.3821
@<TRIPOS>BOND
     1    1    2 1
     2    1   31 1
     3    1   32 1
     4    1   33 1
     5    2    7 ar
     6    2    3 ar
     7    3    4 ar
     8    3   34 1
     9    4    5 ar
    10    4   30 1
    11    5    6 ar
    12    5   20 1
    13    6    7 ar
    14    6   35 1
    15    7    8 1
    16    8   13 ar
    17    8    9 ar
    18    9   10 ar
    19    9   36 1
    20   10   11 ar
    21   10   37 1
    22   11   12 ar
    23   11   15 1
    24   12   13 ar
    25   12   38 1
    26   13   14 1
    27   15   16 2
    28   15   39 1
    29   16   17 1
    30   16   40 1
    31   17   18 2
    32   17   19 1
    33   20   25 1
    34   20   29 1
    35   20   21 1
    36   21   22 1
    37   21   41 1
    38   21   42 1
    39   22   28 1
    40   22   23 1
    41   22   43 1
    42   23   24 1
    43   23   44 1
    44   23   45 1
    45   24   25 1
    46   24   26 1
    47   24   46 1
    48   25   47 1
    49   25   48 1
    50   26   27 1
    51   26   49 1
    52   26   50 1
    53   27   28 1
    54   27   29 1
    55   27   51 1
    56   28   52 1
    57   28   53 1
    58   29   54 1
    59   29   55 1
    60   30   56 1
@<TRIPOS>MOLECULE
CHEMBL394103
   79    84     0     0     0
SMALL
USER_CHARGES

@<TRIPOS>ATOM
      1 C1          0.0146    1.4847    0.0464 C.3       1 <0>        -0.1399
      2 C2          0.0414   -0.0450    0.0476 C.3       1 <0>        -0.0199
      3 C3         -1.3913   -0.5740    0.0380 C.3       1 <0>        -0.1113
      4 C4         -2.0355   -0.2465    1.3903 C.3       1 <0>        -0.1113
      5 C5         -1.3800   -1.1169    2.4601 C.3       1 <0>        -0.0236
      6 C6          0.1211   -1.0134    2.3840 C.ar      1 <0>        -0.0275
      7 C7          0.7756   -0.5283    1.2717 C.ar      1 <0>        -0.0799
      8 C8          2.1622   -0.4805    1.2493 C.ar      1 <0>        -0.0567
      9 C9          2.9045   -0.9054    2.3481 C.ar      1 <0>        -0.1342
     10 C10         2.2327   -1.3670    3.4874 C.ar      1 <0>         0.2025
     11 C11         0.8523   -1.4274    3.4922 C.ar      1 <0>        -0.1432
     12 N1          2.9625   -1.7301    4.6238 N.pl3     1 <0>        -0.6170
     13 C12         3.7881   -0.7711    5.2327 C.ar      1 <0>         0.1295
     14 C13         3.5550   -0.4115    6.5494 C.ar      1 <0>        -0.1070
     15 C14         4.3269    0.5654    7.1532 C.ar      1 <0>        -0.1128
     16 C15         5.3386    1.1937    6.4386 C.ar      1 <0>         0.1404
     17 C16         5.5942    0.8293    5.1267 C.ar      1 <0>        -0.1191
     18 C17         4.8348   -0.1756    4.5165 C.ar      1 <0>         0.1214
     19 N2          5.1644   -0.5797    3.2640 N.2       1 <0>        -0.5075
     20 C18         4.3753   -0.8925    2.2996 C.2       1 <0>         0.3237
     21 C19         5.0051   -1.2766    1.0183 C.ar      1 <0>        -0.0923
     22 C20         6.2882   -0.8198    0.7062 C.ar      1 <0>        -0.0817
     23 C21         6.8750   -1.1772   -0.4863 C.ar      1 <0>        -0.0977
     24 C22         6.1870   -1.9975   -1.3857 C.ar      1 <0>        -0.1071
     25 C23         4.9030   -2.4543   -1.0729 C.ar      1 <0>        -0.0939
     26 C24         4.3194   -2.1011    0.1225 C.ar      1 <0>        -0.1012
     27 C25         6.8152   -2.3804   -2.6642 C.2       1 <0>         0.5169
     28 O1          7.9381   -1.9804   -2.9378 O.co2     1 <0>        -0.6843
     29 O2          6.2132   -3.0979   -3.4507 O.co2     1 <0>        -0.6844
     30 N3          6.1025    2.1992    7.0461 N.am      1 <0>        -0.6716
     31 C26         5.5293    3.0399    7.9299 C.2       1 <0>         0.5130
     32 O3          4.3749    2.8746    8.2632 O.2       1 <0>        -0.5098
     33 C27         6.3228    4.1852    8.5042 C.3       1 <0>        -0.1001
     34 C28         5.4576    4.9669    9.4589 C.ar      1 <0>        -0.0796
     35 C29         4.6962    6.0230    8.9944 C.ar      1 <0>        -0.0736
     36 C30         3.9020    6.7403    9.8689 C.ar      1 <0>        -0.1517
     37 C31         3.8693    6.4007   11.2108 C.ar      1 <0>         0.0986
     38 C32         4.6324    5.3427   11.6749 C.ar      1 <0>        -0.1526
     39 C33         5.4217    4.6235   10.7976 C.ar      1 <0>        -0.0746
     40 F1          3.0937    7.1014   12.0667 F         1 <0>        -0.1407
     41 C34         2.8670   -3.0863    5.1694 C.3       1 <0>         0.1118
     42 C35        -1.8478   -0.6552    3.8418 C.3       1 <0>        -0.1412
     43 C36        -1.7962   -2.5740    2.2490 C.3       1 <0>        -0.1391
     44 C37         0.7690   -0.5380   -1.2048 C.3       1 <0>        -0.1469
     45 H1          1.0357    1.8660    0.0341 H         1 <0>         0.0566
     46 H2         -0.5158    1.8381   -0.8379 H         1 <0>         0.0589
     47 H3         -0.4951    1.8399    0.9420 H         1 <0>         0.0562
     48 H4         -1.9545   -0.0947   -0.7628 H         1 <0>         0.0681
     49 H5         -1.3833   -1.6535   -0.1132 H         1 <0>         0.0703
     50 H6         -1.8783    0.8059    1.6264 H         1 <0>         0.0691
     51 H7         -3.1039   -0.4582    1.3487 H         1 <0>         0.0668
     52 H8          2.6705   -0.1106    0.3712 H         1 <0>         0.1356
     53 H9          0.3362   -1.7997    4.3648 H         1 <0>         0.1261
     54 H10         2.7671   -0.8954    7.1075 H         1 <0>         0.1259
     55 H11         4.1423    0.8398    8.1813 H         1 <0>         0.1398
     56 H12         6.3802    1.3219    4.5736 H         1 <0>         0.1333
     57 H13         6.8195   -0.1860    1.4008 H         1 <0>         0.1237
     58 H14         7.8667   -0.8238   -0.7276 H         1 <0>         0.1298
     59 H15         4.3711   -3.0879   -1.7671 H         1 <0>         0.1300
     60 H16         3.3294   -2.4574    0.3662 H         1 <0>         0.1181
     61 H17         7.0439    2.2902    6.8304 H         1 <0>         0.4119
     62 H18         7.1906    3.7953    9.0362 H         1 <0>         0.1094
     63 H19         6.6547    4.8381    7.6969 H         1 <0>         0.1100
     64 H20         4.7222    6.2880    7.9477 H         1 <0>         0.1318
     65 H21         3.3075    7.5656    9.5059 H         1 <0>         0.1359
     66 H22         4.6078    5.0771   12.7215 H         1 <0>         0.1356
     67 H23         6.0135    3.7954   11.1585 H         1 <0>         0.1316
     68 H24         3.6260   -3.7179    4.7078 H         1 <0>         0.0447
     69 H25         3.0259   -3.0563    6.2474 H         1 <0>         0.0643
     70 H26         1.8782   -3.4938    4.9591 H         1 <0>         0.0648
     71 H27        -2.9317   -0.7485    3.9083 H         1 <0>         0.0580
     72 H28        -1.3820   -1.2742    4.6086 H         1 <0>         0.0575
     73 H29        -1.5627    0.3860    3.9926 H         1 <0>         0.0564
     74 H30        -1.4743   -2.9044    1.2614 H         1 <0>         0.0613
     75 H31        -1.3303   -3.1990    3.0110 H         1 <0>         0.0550
     76 H32        -2.8804   -2.6568    2.3243 H         1 <0>         0.0583
     77 H33         1.7895   -0.1548   -1.2066 H         1 <0>         0.0632
     78 H34         0.7902   -1.6278   -1.2074 H         1 <0>         0.0600
     79 H35         0.2459   -0.1826   -2.0925 H         1 <0>         0.0594
@<TRIPOS>BOND
     1    1    2 1
     2    1   45 1
     3    1   46 1
     4    1   47 1
     5    2    7 1
     6    2    3 1
     7    2   44 1
     8    3    4 1
     9    3   48 1
    10    3   49 1
    11    4    5 1
    12    4   50 1
    13    4   51 1
    14    5    6 1
    15    5   42 1
    16    5   43 1
    17    6   11 ar
    18    6    7 ar
    19    7    8 ar
    20    8    9 ar
    21    8   52 1
    22    9   20 1
    23    9   10 ar
    24   10   11 ar
    25   10   12 1
    26   11   53 1
    27   12   13 1
    28   12   41 1
    29   13   18 ar
    30   13   14 ar
    31   14   15 ar
    32   14   54 1
    33   15   16 ar
    34   15   55 1
    35   16   17 ar
    36   16   30 1
    37   17   18 ar
    38   17   56 1
    39   18   19 1
    40   19   20 2
    41   20   21 1
    42   21   26 ar
    43   21   22 ar
    44   22   23 ar
    45   22   57 1
    46   23   24 ar
    47   23   58 1
    48   24   25 ar
    49   24   27 1
    50   25   26 ar
    51   25   59 1
    52   26   60 1
    53   27   28 2
    54   27   29 1
    55   30   31 am
    56   30   61 1
    57   31   32 2
    58   31   33 1
    59   33   34 1
    60   33   62 1
    61   33   63 1
    62   34   39 ar
    63   34   35 ar
    64   35   36 ar
    65   35   64 1
    66   36   37 ar
    67   36   65 1
    68   37   38 ar
    69   37   40 1
    70   38   39 ar
    71   38   66 1
    72   39   67 1
    73   41   68 1
    74   41   69 1
    75   41   70 1
    76   42   71 1
    77   42   72 1
    78   42   73 1
    79   43   74 1
    80   43   75 1
    81   43   76 1
    82   44   77 1
    83   44   78 1
    84   44   79 1
@<TRIPOS>MOLECULE
CHEMBL288436
   55    58     0     0     0
SMALL
USER_CHARGES

@<TRIPOS>ATOM
      1 C1         -0.5217    1.3909    0.0506 C.3       1 <0>        -0.1146
      2 C2         -0.2355   -0.0886    0.0392 C.ar      1 <0>        -0.0666
      3 C3         -0.3317   -0.8033   -1.1371 C.ar      1 <0>        -0.1204
      4 C4         -0.0681   -2.1665   -1.1581 C.ar      1 <0>        -0.0608
      5 C5          0.2958   -2.8089    0.0043 C.ar      1 <0>        -0.0694
      6 C6          0.3886   -2.0885    1.1879 C.ar      1 <0>        -0.1024
      7 C7          0.1297   -0.7334    1.2061 C.ar      1 <0>        -0.0400
      8 C8          0.2400    0.0402    2.4946 C.3       1 <0>        -0.0389
      9 C9          1.4687   -0.2160    3.3695 C.3       1 <0>        -0.1552
     10 C10         1.3430    1.0960    2.5926 C.3       1 <0>        -0.1453
     11 C11        -1.0639    0.3292    3.1928 C.ar      1 <0>         0.1516
     12 C12        -2.1616   -0.4758    2.9444 C.ar      1 <0>        -0.1751
     13 C13        -3.3570   -0.2082    3.5866 C.ar      1 <0>        -0.0445
     14 C14        -3.4069    0.8781    4.4711 C.ar      1 <0>        -0.1837
     15 C15        -2.2539    1.6416    4.6665 C.ar      1 <0>         0.1289
     16 N1         -1.1381    1.3424    4.0348 N.ar      1 <0>        -0.4960
     17 C16        -4.6560    1.2095    5.1828 C.2       1 <0>         0.5250
     18 O1         -5.6596    0.5341    5.0034 O.co2     1 <0>        -0.6848
     19 O2         -4.6878    2.1596    5.9521 O.co2     1 <0>        -0.6833
     20 C17         0.6117   -4.2809    0.0523 C.3       1 <0>        -0.0206
     21 C18         0.0587   -4.9896   -1.1825 C.3       1 <0>        -0.1115
     22 C19         0.5276   -4.2285   -2.4281 C.3       1 <0>        -0.1101
     23 C20        -0.1998   -2.8862   -2.4748 C.3       1 <0>        -0.0221
     24 C21        -1.6812   -3.1254   -2.7732 C.3       1 <0>        -0.1397
     25 C22         0.4046   -2.0232   -3.5842 C.3       1 <0>        -0.1409
     26 C23         2.1291   -4.4698    0.1052 C.3       1 <0>        -0.1378
     27 C24        -0.0157   -4.8908    1.3074 C.3       1 <0>        -0.1438
     28 H1          0.4138    1.9426   -0.0415 H         1 <0>         0.0684
     29 H2         -1.1749    1.6411   -0.7854 H         1 <0>         0.0599
     30 H3         -1.0110    1.6591    0.9870 H         1 <0>         0.0723
     31 H4         -0.6147   -0.2984   -2.0489 H         1 <0>         0.1199
     32 H5          0.6689   -2.5925    2.1010 H         1 <0>         0.1220
     33 H6          1.3342   -0.1757    4.4505 H         1 <0>         0.0977
     34 H7          2.1973   -0.9441    3.0131 H         1 <0>         0.0941
     35 H8          1.9889    1.2311    1.7251 H         1 <0>         0.0909
     36 H9          1.1257    1.9995    3.1624 H         1 <0>         0.1104
     37 H10        -2.0858   -1.3044    2.2558 H         1 <0>         0.1224
     38 H11        -4.2294   -0.8201    3.4109 H         1 <0>         0.1347
     39 H12        -2.2767    2.4819    5.3446 H         1 <0>         0.1611
     40 H13         0.4315   -6.0133   -1.2159 H         1 <0>         0.0650
     41 H14        -1.0306   -4.9962   -1.1448 H         1 <0>         0.0691
     42 H15         1.6033   -4.0613   -2.3729 H         1 <0>         0.0676
     43 H16         0.2906   -4.8057   -3.3218 H         1 <0>         0.0646
     44 H17        -2.2002   -2.1683   -2.8265 H         1 <0>         0.0563
     45 H18        -1.7806   -3.6461   -3.7255 H         1 <0>         0.0560
     46 H19        -2.1183   -3.7320   -1.9800 H         1 <0>         0.0589
     47 H20         1.4580   -1.8422   -3.3707 H         1 <0>         0.0553
     48 H21         0.3111   -2.5409   -4.5389 H         1 <0>         0.0557
     49 H22        -0.1248   -1.0717   -3.6335 H         1 <0>         0.0585
     50 H23         2.5251   -3.9820    0.9958 H         1 <0>         0.0556
     51 H24         2.3617   -5.5341    0.1400 H         1 <0>         0.0559
     52 H25         2.5814   -4.0279   -0.7827 H         1 <0>         0.0566
     53 H26        -1.0962   -4.7498    1.2787 H         1 <0>         0.0578
     54 H27         0.2107   -5.9564    1.3457 H         1 <0>         0.0561
     55 H28         0.3913   -4.4009    2.1919 H         1 <0>         0.0596
@<TRIPOS>BOND
     1    1    2 1
     2    1   28 1
     3    1   29 1
     4    1   30 1
     5    2    7 ar
     6    2    3 ar
     7    3    4 ar
     8    3   31 1
     9    4   23 1
    10    4    5 ar
    11    5    6 ar
    12    5   20 1
    13    6    7 ar
    14    6   32 1
    15    7    8 1
    16    8   10 1
    17    8    9 1
    18    8   11 1
    19    9   10 1
    20    9   33 1
    21    9   34 1
    22   10   35 1
    23   10   36 1
    24   11   16 ar
    25   11   12 ar
    26   12   13 ar
    27   12   37 1
    28   13   14 ar
    29   13   38 1
    30   14   15 ar
    31   14   17 1
    32   15   16 ar
    33   15   39 1
    34   17   18 2
    35   17   19 1
    36   20   21 1
    37   20   26 1
    38   20   27 1
    39   21   22 1
    40   21   40 1
    41   21   41 1
    42   22   23 1
    43   22   42 1
    44   22   43 1
    45   23   24 1
    46   23   25 1
    47   24   44 1
    48   24   45 1
    49   24   46 1
    50   25   47 1
    51   25   48 1
    52   25   49 1
    53   26   50 1
    54   26   51 1
    55   26   52 1
    56   27   53 1
    57   27   54 1
    58   27   55 1
@<TRIPOS>MOLECULE
CHEMBL335751
   60    61     0     0     0
SMALL
USER_CHARGES

@<TRIPOS>ATOM
      1 C1          0.6411    0.9383    1.6657 C.3       1 <0>        -0.1497
      2 C2          0.6239   -0.5648    1.9509 C.3       1 <0>        -0.0542
      3 C3          1.1140   -0.8189    3.3778 C.3       1 <0>        -0.1462
      4 C4         -0.7813   -1.0884    1.8017 C.ar      1 <0>        -0.0726
      5 C5         -1.7902   -0.5812    2.5927 C.ar      1 <0>        -0.0768
      6 C6         -3.0940   -1.0664    2.4549 C.ar      1 <0>        -0.0242
      7 C7         -3.3646   -2.0682    1.5099 C.ar      1 <0>         0.1107
      8 C8         -2.3382   -2.5655    0.7242 C.ar      1 <0>        -0.0903
      9 C9         -1.0545   -2.0728    0.8668 C.ar      1 <0>        -0.0927
     10 C10        -2.6224   -3.6416   -0.2919 C.3       1 <0>        -0.0560
     11 C11        -2.2583   -3.1334   -1.6883 C.3       1 <0>        -0.1449
     12 C12        -1.7884   -4.8826    0.0327 C.3       1 <0>        -0.1411
     13 O1         -4.6266   -2.5479    1.3669 O.3       1 <0>        -0.3220
     14 C13        -5.4693   -1.8854    0.4219 C.3       1 <0>         0.0696
     15 C14        -6.8415   -2.5617    0.4003 C.3       1 <0>        -0.1503
     16 C15        -7.7437   -1.8524   -0.6115 C.3       1 <0>         0.0657
     17 F1         -8.9985   -2.4708   -0.6313 F         1 <0>        -0.2147
     18 C16        -4.1763   -0.5302    3.2960 C.2       1 <0>         0.0287
     19 C17        -4.4516    0.8193    3.5214 C.2       1 <0>        -0.1153
     20 C18        -5.6150    0.8317    4.4203 C.2       1 <0>        -0.2051
     21 C19        -5.9260   -0.4530    4.6484 C.2       1 <0>        -0.0335
     22 O2         -5.0795   -1.2520    3.9796 O.3       1 <0>        -0.1629
     23 C20        -3.7363    1.9729    2.9805 C.2       1 <0>        -0.1123
     24 C21        -3.9265    3.2067    3.5222 C.2       1 <0>        -0.0807
     25 C22        -3.2395    4.3145    3.0027 C.2       1 <0>        -0.0784
     26 C23        -3.4304    5.5524    3.5462 C.2       1 <0>        -0.1375
     27 C24        -2.8693    6.6834    2.9312 C.2       1 <0>         0.4404
     28 O3         -2.2300    6.5612    1.7671 O.co2     1 <0>        -0.6913
     29 O4         -2.9757    7.8797    3.5113 O.co2     1 <0>        -0.7155
     30 C25        -2.2910    4.1379    1.8450 C.3       1 <0>        -0.1007
     31 H1          1.6574    1.3169    1.7736 H         1 <0>         0.0607
     32 H2          0.2919    1.1192    0.6492 H         1 <0>         0.0585
     33 H3         -0.0139    1.4494    2.3713 H         1 <0>         0.0623
     34 H4          1.2789   -1.0760    1.2453 H         1 <0>         0.0782
     35 H5          2.1304   -0.4402    3.4857 H         1 <0>         0.0599
     36 H6          0.4590   -0.3078    4.0833 H         1 <0>         0.0587
     37 H7          1.1018   -1.8897    3.5809 H         1 <0>         0.0546
     38 H8         -1.5735    0.1894    3.3177 H         1 <0>         0.1344
     39 H9         -0.2589   -2.4609    0.2482 H         1 <0>         0.1278
     40 H10        -3.6815   -3.8979   -0.2632 H         1 <0>         0.0838
     41 H11        -1.1993   -2.8771   -1.7170 H         1 <0>         0.0582
     42 H12        -2.4638   -3.9117   -2.4233 H         1 <0>         0.0585
     43 H13        -2.8525   -2.2493   -1.9196 H         1 <0>         0.0543
     44 H14        -2.0478   -5.2446    1.0275 H         1 <0>         0.0565
     45 H15        -1.9939   -5.6609   -0.7022 H         1 <0>         0.0575
     46 H16        -0.7293   -4.6263    0.0040 H         1 <0>         0.0562
     47 H17        -5.5840   -0.8398    0.7078 H         1 <0>         0.0581
     48 H18        -5.0197   -1.9438   -0.5693 H         1 <0>         0.0573
     49 H19        -6.7268   -3.6073    0.1144 H         1 <0>         0.0836
     50 H20        -7.2911   -2.5033    1.3915 H         1 <0>         0.0850
     51 H21        -7.8585   -0.8068   -0.3257 H         1 <0>         0.0789
     52 H22        -7.2942   -1.9108   -1.6028 H         1 <0>         0.0774
     53 H23        -6.1181    1.7009    4.8175 H         1 <0>         0.1532
     54 H24        -6.7384   -0.7936    5.2733 H         1 <0>         0.2009
     55 H25        -3.0566    1.8464    2.1508 H         1 <0>         0.1269
     56 H26        -4.6062    3.3332    4.3519 H         1 <0>         0.1113
     57 H27        -4.0128    5.6618    4.4491 H         1 <0>         0.1077
     58 H28        -2.8092    4.3640    0.9131 H         1 <0>         0.0646
     59 H29        -1.4440    4.8137    1.9629 H         1 <0>         0.0973
     60 H30        -1.9339    3.1084    1.8217 H         1 <0>         0.0315
@<TRIPOS>BOND
     1    1    2 1
     2    1   31 1
     3    1   32 1
     4    1   33 1
     5    2    3 1
     6    2    4 1
     7    2   34 1
     8    3   35 1
     9    3   36 1
    10    3   37 1
    11    4    9 ar
    12    4    5 ar
    13    5    6 ar
    14    5   38 1
    15    6    7 ar
    16    6   18 1
    17    7    8 ar
    18    7   13 1
    19    8    9 ar
    20    8   10 1
    21    9   39 1
    22   10   11 1
    23   10   12 1
    24   10   40 1
    25   11   41 1
    26   11   42 1
    27   11   43 1
    28   12   44 1
    29   12   45 1
    30   12   46 1
    31   13   14 1
    32   14   15 1
    33   14   47 1
    34   14   48 1
    35   15   16 1
    36   15   49 1
    37   15   50 1
    38   16   17 1
    39   16   51 1
    40   16   52 1
    41   18   22 1
    42   18   19 2
    43   19   20 1
    44   19   23 1
    45   20   21 2
    46   20   53 1
    47   21   22 1
    48   21   54 1
    49   23   24 2
    50   23   55 1
    51   24   25 1
    52   24   56 1
    53   25   26 2
    54   25   30 1
    55   26   27 1
    56   26   57 1
    57   27   28 2
    58   27   29 1
    59   30   58 1
    60   30   59 1
    61   30   60 1
@<TRIPOS>MOLECULE
CHEMBL92926
   55    57     0     0     0
SMALL
USER_CHARGES

@<TRIPOS>ATOM
      1 C1          0.3577    1.0665   -0.1378 C.3       1 <0>        -0.1180
      2 C2          0.1629   -0.4048    0.1236 C.ar      1 <0>        -0.0724
      3 C3          0.1207   -1.2947   -0.9252 C.ar      1 <0>        -0.1206
      4 C4         -0.0560   -2.6552   -0.6977 C.ar      1 <0>        -0.0620
      5 C5         -0.1882   -3.1260    0.5918 C.ar      1 <0>        -0.0674
      6 C6         -0.1516   -2.2399    1.6564 C.ar      1 <0>        -0.0993
      7 C7          0.0298   -0.8747    1.4333 C.ar      1 <0>        -0.0468
      8 C8          0.0755    0.0639    2.5676 C.2       1 <0>        -0.0481
      9 C9          1.1728    0.1294    3.3425 C.2       1 <0>        -0.1137
     10 C10         1.1604    0.9427    4.5675 C.ar      1 <0>         0.1348
     11 C11         2.3400    1.0999    5.3046 C.ar      1 <0>        -0.1742
     12 C12         2.3225    1.8579    6.4438 C.ar      1 <0>        -0.0476
     13 C13         1.1122    2.4545    6.8339 C.ar      1 <0>        -0.1795
     14 C14        -0.0290    2.2554    6.0498 C.ar      1 <0>         0.1208
     15 N1          0.0285    1.5248    4.9588 N.ar      1 <0>        -0.4822
     16 C15         1.0454    3.2782    8.0526 C.2       1 <0>         0.5231
     17 O1          2.0482    3.4467    8.7327 O.co2     1 <0>        -0.6850
     18 O2         -0.0130    3.7941    8.3850 O.co2     1 <0>        -0.6831
     19 C16        -1.1074    0.9508    2.8599 C.3       1 <0>        -0.0990
     20 C17        -0.3658   -4.5886    0.9064 C.3       1 <0>        -0.0214
     21 C18        -0.8111   -5.3558   -0.3367 C.3       1 <0>        -0.1109
     22 C19         0.1454   -5.0135   -1.4850 C.3       1 <0>        -0.1111
     23 C20        -0.0986   -3.5639   -1.8991 C.3       1 <0>        -0.0223
     24 C21        -1.4710   -3.4540   -2.5664 C.3       1 <0>        -0.1386
     25 C22         0.9813   -3.1350   -2.8945 C.3       1 <0>        -0.1415
     26 C23         0.9624   -5.1623    1.4043 C.3       1 <0>        -0.1395
     27 C24        -1.4234   -4.7444    2.0010 C.3       1 <0>        -0.1434
     28 H1          1.4230    1.2969   -0.1420 H         1 <0>         0.0688
     29 H2         -0.0735    1.3238   -1.1053 H         1 <0>         0.0621
     30 H3         -0.1357    1.6430    0.6447 H         1 <0>         0.0741
     31 H4          0.2257   -0.9321   -1.9371 H         1 <0>         0.1198
     32 H5         -0.2600   -2.6088    2.6656 H         1 <0>         0.1230
     33 H6          2.0631   -0.4153    3.0650 H         1 <0>         0.1206
     34 H7          3.2545    0.6275    4.9778 H         1 <0>         0.1244
     35 H8          3.2193    1.9941    7.0300 H         1 <0>         0.1354
     36 H9         -0.9646    2.7094    6.3413 H         1 <0>         0.1618
     37 H10        -1.7326    0.4835    3.6208 H         1 <0>         0.0734
     38 H11        -0.7563    1.9173    3.2215 H         1 <0>         0.0933
     39 H12        -1.6888    1.0929    1.9490 H         1 <0>         0.0405
     40 H13        -0.7780   -6.4271   -0.1384 H         1 <0>         0.0656
     41 H14        -1.8262   -5.0628   -0.6048 H         1 <0>         0.0682
     42 H15         1.1764   -5.1315   -1.1515 H         1 <0>         0.0685
     43 H16        -0.0452   -5.6740   -2.3309 H         1 <0>         0.0650
     44 H17        -1.6406   -2.4243   -2.8811 H         1 <0>         0.0554
     45 H18        -1.5057   -4.1101   -3.4361 H         1 <0>         0.0562
     46 H19        -2.2444   -3.7493   -1.8574 H         1 <0>         0.0582
     47 H20         1.9602   -3.2024   -2.4200 H         1 <0>         0.0561
     48 H21         0.9536   -3.7902   -3.7652 H         1 <0>         0.0561
     49 H22         0.7992   -2.1069   -3.2075 H         1 <0>         0.0583
     50 H23         1.2737   -4.6305    2.3033 H         1 <0>         0.0571
     51 H24         0.8380   -6.2208    1.6330 H         1 <0>         0.0567
     52 H25         1.7216   -5.0445    0.6311 H         1 <0>         0.0572
     53 H26        -2.3691   -4.3278    1.6544 H         1 <0>         0.0562
     54 H27        -1.5548   -5.8016    2.2315 H         1 <0>         0.0567
     55 H28        -1.0997   -4.2147    2.8970 H         1 <0>         0.0604
@<TRIPOS>BOND
     1    1    2 1
     2    1   28 1
     3    1   29 1
     4    1   30 1
     5    2    7 ar
     6    2    3 ar
     7    3    4 ar
     8    3   31 1
     9    4   23 1
    10    4    5 ar
    11    5    6 ar
    12    5   20 1
    13    6    7 ar
    14    6   32 1
    15    7    8 1
    16    8    9 2
    17    8   19 1
    18    9   10 1
    19    9   33 1
    20   10   15 ar
    21   10   11 ar
    22   11   12 ar
    23   11   34 1
    24   12   13 ar
    25   12   35 1
    26   13   14 ar
    27   13   16 1
    28   14   15 ar
    29   14   36 1
    30   16   17 2
    31   16   18 1
    32   19   37 1
    33   19   38 1
    34   19   39 1
    35   20   21 1
    36   20   26 1
    37   20   27 1
    38   21   22 1
    39   21   40 1
    40   21   41 1
    41   22   23 1
    42   22   42 1
    43   22   43 1
    44   23   24 1
    45   23   25 1
    46   24   44 1
    47   24   45 1
    48   24   46 1
    49   25   47 1
    50   25   48 1
    51   25   49 1
    52   26   50 1
    53   26   51 1
    54   26   52 1
    55   27   53 1
    56   27   54 1
    57   27   55 1
@<TRIPOS>MOLECULE
CHEMBL326855
   53    56     0     0     0
SMALL
USER_CHARGES

@<TRIPOS>ATOM
      1 C1         -0.0840    1.5186    0.0483 C.3       1 <0>        -0.1375
      2 C2         -0.0690   -0.0113    0.0456 C.3       1 <0>        -0.0219
      3 C3         -1.5058   -0.5291    0.0551 C.3       1 <0>        -0.1123
      4 C4         -2.1257   -0.2103    1.4208 C.3       1 <0>        -0.1099
      5 C5         -1.4590   -1.0968    2.4708 C.3       1 <0>        -0.0220
      6 C6          0.0408   -0.9976    2.3723 C.ar      1 <0>        -0.0614
      7 C7          0.6793   -0.5027    1.2571 C.ar      1 <0>        -0.0680
      8 C8          2.0664   -0.4444    1.2281 C.ar      1 <0>        -0.1191
      9 C9          2.8092   -0.8748    2.3083 C.ar      1 <0>        -0.1118
     10 C10         2.1682   -1.3679    3.4292 C.ar      1 <0>        -0.0348
     11 C11         0.7901   -1.4285    3.4593 C.ar      1 <0>        -0.1021
     12 C12         2.9717   -1.8382    4.6142 C.3       1 <0>        -0.0426
     13 C13         4.1059   -0.9346    5.1022 C.3       1 <0>        -0.1622
     14 C14         2.8211   -1.0608    5.9233 C.3       1 <0>        -0.1646
     15 C15         3.1784   -3.3279    4.7094 C.ar      1 <0>        -0.0581
     16 C16         3.9404   -3.9797    3.7557 C.ar      1 <0>        -0.1232
     17 C17         4.1334   -5.3430    3.8362 C.ar      1 <0>        -0.0852
     18 C18         3.5578   -6.0659    4.8842 C.ar      1 <0>        -0.1320
     19 C19         2.7901   -5.4010    5.8437 C.ar      1 <0>        -0.0855
     20 C20         2.6099   -4.0366    5.7533 C.ar      1 <0>        -0.1306
     21 C21         3.7594   -7.5245    4.9769 C.2       1 <0>         0.5187
     22 O1          4.4315   -8.1036    4.1353 O.co2     1 <0>        -0.6880
     23 O2          3.2542   -8.1544    5.8953 O.co2     1 <0>        -0.6883
     24 C22        -1.8843   -2.5496    2.2484 C.3       1 <0>        -0.1412
     25 C23        -1.9038   -0.6495    3.8648 C.3       1 <0>        -0.1420
     26 C24         0.6366   -0.5066   -1.2184 C.3       1 <0>        -0.1422
     27 H1          0.9397    1.8921    0.0217 H         1 <0>         0.0547
     28 H2         -0.6248    1.8782   -0.8272 H         1 <0>         0.0557
     29 H3         -0.5776    1.8756    0.9522 H         1 <0>         0.0572
     30 H4         -2.0783   -0.0377   -0.7316 H         1 <0>         0.0647
     31 H5         -1.5087   -1.6070   -0.1068 H         1 <0>         0.0696
     32 H6         -1.9569    0.8385    1.6649 H         1 <0>         0.0671
     33 H7         -3.1962   -0.4140    1.3946 H         1 <0>         0.0653
     34 H8          2.5680   -0.0593    0.3526 H         1 <0>         0.1191
     35 H9          3.8876   -0.8262    2.2782 H         1 <0>         0.1192
     36 H10         0.2900   -1.8142    4.3353 H         1 <0>         0.1211
     37 H11         5.0018   -1.4175    5.4921 H         1 <0>         0.0975
     38 H12         4.2708    0.0001    4.5661 H         1 <0>         0.0943
     39 H13         2.1407   -0.2091    5.9275 H         1 <0>         0.0937
     40 H14         2.8718   -1.6267    6.8535 H         1 <0>         0.0993
     41 H15         4.3847   -3.4196    2.9463 H         1 <0>         0.1105
     42 H16         4.7278   -5.8505    3.0909 H         1 <0>         0.1248
     43 H17         2.3422   -5.9535    6.6564 H         1 <0>         0.1251
     44 H18         2.0203   -3.5206    6.4966 H         1 <0>         0.1125
     45 H19        -1.5779   -2.8694    1.2525 H         1 <0>         0.0580
     46 H20        -1.4103   -3.1854    2.9961 H         1 <0>         0.0592
     47 H21        -2.9677   -2.6288    2.3381 H         1 <0>         0.0566
     48 H22        -2.9871   -0.7383    3.9464 H         1 <0>         0.0565
     49 H23        -1.4298   -1.2800    4.6171 H         1 <0>         0.0606
     50 H24        -1.6112    0.3884    4.0239 H         1 <0>         0.0544
     51 H25         1.6598   -0.1312   -1.2341 H         1 <0>         0.0581
     52 H26         0.6494   -1.5965   -1.2239 H         1 <0>         0.0575
     53 H27         0.1033   -0.1450   -2.0975 H         1 <0>         0.0557
@<TRIPOS>BOND
     1    1    2 1
     2    1   27 1
     3    1   28 1
     4    1   29 1
     5    2    7 1
     6    2    3 1
     7    2   26 1
     8    3    4 1
     9    3   30 1
    10    3   31 1
    11    4    5 1
    12    4   32 1
    13    4   33 1
    14    5    6 1
    15    5   24 1
    16    5   25 1
    17    6   11 ar
    18    6    7 ar
    19    7    8 ar
    20    8    9 ar
    21    8   34 1
    22    9   10 ar
    23    9   35 1
    24   10   11 ar
    25   10   12 1
    26   11   36 1
    27   12   14 1
    28   12   13 1
    29   12   15 1
    30   13   14 1
    31   13   37 1
    32   13   38 1
    33   14   39 1
    34   14   40 1
    35   15   20 ar
    36   15   16 ar
    37   16   17 ar
    38   16   41 1
    39   17   18 ar
    40   17   42 1
    41   18   19 ar
    42   18   21 1
    43   19   20 ar
    44   19   43 1
    45   20   44 1
    46   21   22 2
    47   21   23 1
    48   24   45 1
    49   24   46 1
    50   24   47 1
    51   25   48 1
    52   25   49 1
    53   25   50 1
    54   26   51 1
    55   26   52 1
    56   26   53 1
@<TRIPOS>MOLECULE
CHEMBL583996
   52    54     0     0     0
SMALL
USER_CHARGES

@<TRIPOS>ATOM
      1 C1         -0.4888    1.5021    0.1052 C.3       1 <0>        -0.1212
      2 C2         -0.2313    0.0189    0.0351 C.ar      1 <0>        -0.0775
      3 C3         -0.3382   -0.6462   -1.1690 C.ar      1 <0>        -0.1180
      4 C4         -0.1010   -2.0124   -1.2441 C.ar      1 <0>        -0.0647
      5 C5          0.2472   -2.7076   -0.1075 C.ar      1 <0>        -0.0668
      6 C6          0.3508   -2.0371    1.1041 C.ar      1 <0>        -0.1073
      7 C7          0.1182   -0.6790    1.1759 C.ar      1 <0>        -0.0728
      8 C8          0.2400    0.0402    2.4946 C.3       1 <0>        -0.0378
      9 C9          1.6229    0.6254    2.6219 C.ar      1 <0>        -0.0588
     10 C10         2.6563   -0.1514    3.1189 C.ar      1 <0>        -0.1447
     11 C11         3.9241    0.3748    3.2389 C.ar      1 <0>        -0.0554
     12 C12         4.1679    1.6978    2.8575 C.ar      1 <0>        -0.1729
     13 C13         3.1195    2.4779    2.3559 C.ar      1 <0>         0.1320
     14 C14         1.8540    1.9324    2.2367 C.ar      1 <0>        -0.1748
     15 F1          3.3439    3.7574    1.9849 F         1 <0>        -0.1228
     16 C15         5.5209    2.2677    2.9834 C.2       1 <0>         0.5195
     17 O1          6.4345    1.5832    3.4225 O.co2     1 <0>        -0.6859
     18 O2          5.7304    3.4254    2.6487 O.co2     1 <0>        -0.6746
     19 C16         0.5344   -4.1863   -0.1179 C.3       1 <0>        -0.0215
     20 C17        -0.0289   -4.8341   -1.3811 C.3       1 <0>        -0.1099
     21 C18         0.4579   -4.0331   -2.5943 C.3       1 <0>        -0.1120
     22 C19        -0.2431   -2.6762   -2.5888 C.3       1 <0>        -0.0216
     23 C20        -1.7281   -2.8743   -2.8993 C.3       1 <0>        -0.1372
     24 C21         0.3809   -1.7815   -3.6616 C.3       1 <0>        -0.1425
     25 C22         2.0476   -4.4067   -0.0697 C.3       1 <0>        -0.1405
     26 C23        -0.1082   -4.8335    1.1106 C.3       1 <0>        -0.1411
     27 H1          0.4565    2.0390    0.0256 H         1 <0>         0.0763
     28 H2         -1.1439    1.7962   -0.7148 H         1 <0>         0.0611
     29 H3         -0.9650    1.7437    1.0554 H         1 <0>         0.0688
     30 H4         -0.6089   -0.0999   -2.0604 H         1 <0>         0.1186
     31 H5          0.6188   -2.5825    1.9969 H         1 <0>         0.1205
     32 H6         -0.4988    0.8403    2.5418 H         1 <0>         0.0814
     33 H7          0.0666   -0.6629    3.3093 H         1 <0>         0.0793
     34 H8          2.4676   -1.1731    3.4137 H         1 <0>         0.1175
     35 H9          4.7278   -0.2333    3.6271 H         1 <0>         0.1336
     36 H10         1.0441    2.5303    1.8456 H         1 <0>         0.1269
     37 H11         0.3240   -5.8628   -1.4547 H         1 <0>         0.0648
     38 H12        -1.1183   -4.8210   -1.3458 H         1 <0>         0.0670
     39 H13         1.5365   -3.8893   -2.5305 H         1 <0>         0.0694
     40 H14         0.2123   -4.5695   -3.5109 H         1 <0>         0.0645
     41 H15        -2.2282   -1.9059   -2.9153 H         1 <0>         0.0547
     42 H16        -1.8350   -3.3545   -3.8719 H         1 <0>         0.0555
     43 H17        -2.1790   -3.5035   -2.1318 H         1 <0>         0.0571
     44 H18         1.4371   -1.6297   -3.4389 H         1 <0>         0.0575
     45 H19         0.2800   -2.2586   -4.6364 H         1 <0>         0.0557
     46 H20        -0.1298   -0.8186   -3.6738 H         1 <0>         0.0580
     47 H21         2.4507   -3.9626    0.8405 H         1 <0>         0.0584
     48 H22         2.2595   -5.4758   -0.0771 H         1 <0>         0.0560
     49 H23         2.5108   -3.9385   -0.9383 H         1 <0>         0.0581
     50 H24        -1.1856   -4.6705    1.0855 H         1 <0>         0.0547
     51 H25         0.0975   -5.9040    1.1066 H         1 <0>         0.0559
     52 H26         0.3059   -4.3873    2.0148 H         1 <0>         0.0595
@<TRIPOS>BOND
     1    1    2 1
     2    1   27 1
     3    1   28 1
     4    1   29 1
     5    2    7 ar
     6    2    3 ar
     7    3    4 ar
     8    3   30 1
     9    4   22 1
    10    4    5 ar
    11    5    6 ar
    12    5   19 1
    13    6    7 ar
    14    6   31 1
    15    7    8 1
    16    8    9 1
    17    8   32 1
    18    8   33 1
    19    9   14 ar
    20    9   10 ar
    21   10   11 ar
    22   10   34 1
    23   11   12 ar
    24   11   35 1
    25   12   13 ar
    26   12   16 1
    27   13   14 ar
    28   13   15 1
    29   14   36 1
    30   16   17 2
    31   16   18 1
    32   19   20 1
    33   19   25 1
    34   19   26 1
    35   20   21 1
    36   20   37 1
    37   20   38 1
    38   21   22 1
    39   21   39 1
    40   21   40 1
    41   22   23 1
    42   22   24 1
    43   23   41 1
    44   23   42 1
    45   23   43 1
    46   24   44 1
    47   24   45 1
    48   24   46 1
    49   25   47 1
    50   25   48 1
    51   25   49 1
    52   26   50 1
    53   26   51 1
    54   26   52 1
@<TRIPOS>MOLECULE
CHEMBL41260
   65    67     0     0     0
SMALL
USER_CHARGES

@<TRIPOS>ATOM
      1 C1          1.2171   -2.1891    0.3263 C.3       1 <0>        -0.0834
      2 C2          1.1107   -3.6155   -0.1481 C.2       1 <0>        -0.0704
      3 C3          1.0225   -4.6267    0.7546 C.2       1 <0>        -0.1385
      4 C4          1.1933   -4.3618    2.1292 C.2       1 <0>         0.5005
      5 O1          1.5346   -3.2445    2.5002 O.co2     1 <0>        -0.6789
      6 O2          1.0003   -5.2488    2.9529 O.co2     1 <0>        -0.6979
      7 C5          1.1025   -3.9018   -1.5355 C.2       1 <0>        -0.0308
      8 C6          0.0884   -4.4380   -2.2958 C.2       1 <0>        -0.1546
      9 C7          0.2866   -4.6437   -3.6680 C.ar      1 <0>        -0.0341
     10 C8         -0.6336   -5.1843   -4.6203 C.ar      1 <0>        -0.0223
     11 C9         -0.2689   -5.3183   -5.9455 C.ar      1 <0>        -0.1132
     12 C10         0.9879   -4.9371   -6.3889 C.ar      1 <0>        -0.1147
     13 C11         1.8994   -4.4113   -5.4934 C.ar      1 <0>        -0.0649
     14 C12         1.5565   -4.2682   -4.1658 C.ar      1 <0>        -0.1316
     15 S1          2.4018   -3.6492   -2.7322 S.3       1 <0>         0.0387
     16 C13        -1.9843   -5.6030   -4.1827 C.ar      1 <0>        -0.0547
     17 C14        -2.3553   -6.9460   -4.2423 C.ar      1 <0>        -0.0983
     18 C15        -3.6154   -7.3306   -3.8332 C.ar      1 <0>        -0.0641
     19 C16        -4.5142   -6.3882   -3.3638 C.ar      1 <0>        -0.1040
     20 C17        -4.1576   -5.0546   -3.3003 C.ar      1 <0>        -0.0696
     21 C18        -2.8934   -4.6539   -3.7017 C.ar      1 <0>         0.1019
     22 O3         -2.5398   -3.3442   -3.6340 O.3       1 <0>        -0.2956
     23 C19        -2.5967   -2.5932   -4.8484 C.3       1 <0>         0.0084
     24 C20        -2.2885   -1.1237   -4.5542 C.3       1 <0>         0.4613
     25 F1         -1.0084   -1.0177   -3.9998 F         1 <0>        -0.1664
     26 F2         -2.3442   -0.3885   -5.7431 F         1 <0>        -0.1776
     27 F3         -3.2310   -0.6214   -3.6506 F         1 <0>        -0.1728
     28 C21        -5.1428   -4.0358   -2.7879 C.3       1 <0>        -0.0218
     29 C22        -6.3884   -4.7509   -2.2607 C.3       1 <0>        -0.1438
     30 C23        -4.5008   -3.2294   -1.6571 C.3       1 <0>        -0.1470
     31 C24        -5.5392   -3.0926   -3.9255 C.3       1 <0>        -0.1490
     32 C25        -4.0152   -8.7822   -3.8981 C.3       1 <0>        -0.0278
     33 C26        -2.8508   -9.6077   -4.4490 C.3       1 <0>        -0.1463
     34 C27        -4.3716   -9.2762   -2.4946 C.3       1 <0>        -0.1408
     35 C28        -5.2291   -8.9363   -4.8165 C.3       1 <0>        -0.1372
     36 H1          2.2576   -1.9592    0.5559 H         1 <0>         0.0657
     37 H2          0.8609   -1.5185   -0.4557 H         1 <0>         0.0316
     38 H3          0.6099   -2.0578    1.2220 H         1 <0>         0.0955
     39 H4          0.8217   -5.6336    0.4196 H         1 <0>         0.0993
     40 H5         -0.8542   -4.6991   -1.8378 H         1 <0>         0.1334
     41 H6         -0.9769   -5.7286   -6.6504 H         1 <0>         0.1225
     42 H7          1.2536   -5.0508   -7.4295 H         1 <0>         0.1310
     43 H8          2.8801   -4.1129   -5.8332 H         1 <0>         0.1273
     44 H9         -1.6571   -7.6841   -4.6086 H         1 <0>         0.1332
     45 H10        -5.4992   -6.6968   -3.0460 H         1 <0>         0.1328
     46 H11        -1.8624   -2.9846   -5.5524 H         1 <0>         0.0978
     47 H12        -3.5941   -2.6758   -5.2802 H         1 <0>         0.1037
     48 H13        -6.1059   -5.4229   -1.4503 H         1 <0>         0.0601
     49 H14        -7.1009   -4.0140   -1.8901 H         1 <0>         0.0596
     50 H15        -6.8457   -5.3254   -3.0663 H         1 <0>         0.0560
     51 H16        -3.6134   -2.7199   -2.0326 H         1 <0>         0.0793
     52 H17        -5.2134   -2.4925   -1.2865 H         1 <0>         0.0549
     53 H18        -4.2184   -3.9013   -0.8467 H         1 <0>         0.0558
     54 H19        -5.7816   -3.6763   -4.8136 H         1 <0>         0.0532
     55 H20        -6.4092   -2.5081   -3.6263 H         1 <0>         0.0625
     56 H21        -4.7094   -2.4215   -4.1470 H         1 <0>         0.0610
     57 H22        -1.9860   -9.4979   -3.7946 H         1 <0>         0.0610
     58 H23        -3.1400  -10.6576   -4.4959 H         1 <0>         0.0587
     59 H24        -2.5969   -9.2558   -5.4488 H         1 <0>         0.0583
     60 H25        -5.2011   -8.6880   -2.1021 H         1 <0>         0.0573
     61 H26        -4.6608  -10.3261   -2.5415 H         1 <0>         0.0588
     62 H27        -3.5068   -9.1664   -1.8402 H         1 <0>         0.0601
     63 H28        -4.9752   -8.5843   -5.8164 H         1 <0>         0.0557
     64 H29        -5.5183   -9.9862   -4.8634 H         1 <0>         0.0584
     65 H30        -6.0587   -8.3481   -4.4241 H         1 <0>         0.0565
@<TRIPOS>BOND
     1    1    2 1
     2    1   36 1
     3    1   37 1
     4    1   38 1
     5    2    3 2
     6    2    7 1
     7    3    4 1
     8    3   39 1
     9    4    5 2
    10    4    6 1
    11    7   15 1
    12    7    8 2
    13    8    9 1
    14    8   40 1
    15    9   14 ar
    16    9   10 ar
    17   10   11 ar
    18   10   16 1
    19   11   12 ar
    20   11   41 1
    21   12   13 ar
    22   12   42 1
    23   13   14 ar
    24   13   43 1
    25   14   15 1
    26   16   21 ar
    27   16   17 ar
    28   17   18 ar
    29   17   44 1
    30   18   19 ar
    31   18   32 1
    32   19   20 ar
    33   19   45 1
    34   20   21 ar
    35   20   28 1
    36   21   22 1
    37   22   23 1
    38   23   24 1
    39   23   46 1
    40   23   47 1
    41   24   25 1
    42   24   26 1
    43   24   27 1
    44   28   29 1
    45   28   30 1
    46   28   31 1
    47   29   48 1
    48   29   49 1
    49   29   50 1
    50   30   51 1
    51   30   52 1
    52   30   53 1
    53   31   54 1
    54   31   55 1
    55   31   56 1
    56   32   33 1
    57   32   34 1
    58   32   35 1
    59   33   57 1
    60   33   58 1
    61   33   59 1
    62   34   60 1
    63   34   61 1
    64   34   62 1
    65   35   63 1
    66   35   64 1
    67   35   65 1
@<TRIPOS>MOLECULE
CHEMBL44979
   43    44     0     0     0
SMALL
USER_CHARGES

@<TRIPOS>ATOM
      1 C1         -3.1447    3.2208   -0.4017 C.3       1 <0>        -0.0831
      2 C2         -2.4152    2.0228   -0.9528 C.2       1 <0>        -0.0803
      3 C3         -1.4164    1.4272   -0.2171 C.2       1 <0>        -0.1456
      4 C4         -1.1330    1.8830    1.0809 C.2       1 <0>         0.4414
      5 O1         -1.7573    2.9595    1.5608 O.co2     1 <0>        -0.6961
      6 O2         -0.2396    1.2393    1.8335 O.co2     1 <0>        -0.7170
      7 C5         -2.7539    1.5154   -2.2141 C.2       1 <0>        -0.0863
      8 C6         -1.7827    1.3585   -3.1761 C.2       1 <0>        -0.1393
      9 C7         -0.4798    1.8212   -2.9393 C.2       1 <0>        -0.0994
     10 C8          0.4774    1.6853   -3.9011 C.2       1 <0>        -0.1203
     11 C9          1.8771    2.1825   -3.6467 C.3       1 <0>        -0.1099
     12 C10         0.1579    1.0805   -5.1318 C.2       1 <0>        -0.0859
     13 C11         0.1802    1.8121   -6.2724 C.2       1 <0>        -0.0927
     14 C12         0.4993    3.2927   -6.2482 C.3       1 <0>        -0.0812
     15 C13        -0.4828    3.9888   -7.1996 C.3       1 <0>        -0.1161
     16 C14        -0.2403    3.4992   -8.6247 C.3       1 <0>        -0.0800
     17 C15        -0.3092    1.9988   -8.7049 C.ar      1 <0>        -0.0724
     18 C16        -0.0990    1.1940   -7.5809 C.ar      1 <0>        -0.0352
     19 C17        -0.1588   -0.1990   -7.6915 C.ar      1 <0>        -0.1130
     20 C18        -0.4238   -0.7777   -8.9149 C.ar      1 <0>        -0.1231
     21 C19        -0.6298    0.0203  -10.0270 C.ar      1 <0>        -0.1236
     22 C20        -0.5806    1.4015   -9.9216 C.ar      1 <0>        -0.1224
     23 H1         -2.4278    4.0096   -0.1739 H         1 <0>         0.0811
     24 H2         -3.8599    3.5822   -1.1406 H         1 <0>         0.0269
     25 H3         -3.6740    2.9371    0.5079 H         1 <0>         0.0757
     26 H4         -0.8504    0.6092   -0.6378 H         1 <0>         0.1078
     27 H5         -3.7774    1.2475   -2.4314 H         1 <0>         0.1197
     28 H6         -2.0234    0.8790   -4.1134 H         1 <0>         0.1133
     29 H7         -0.2347    2.2851   -1.9953 H         1 <0>         0.1257
     30 H8          2.4865    1.3678   -3.2555 H         1 <0>         0.0665
     31 H9          2.3095    2.5439   -4.5797 H         1 <0>         0.0607
     32 H10         1.8477    2.9952   -2.9210 H         1 <0>         0.0652
     33 H11        -0.1050    0.0336   -5.1668 H         1 <0>         0.1166
     34 H12         0.3753    3.6820   -5.2376 H         1 <0>         0.0819
     35 H13         1.5224    3.4568   -6.5865 H         1 <0>         0.0722
     36 H14        -1.5050    3.7532   -6.9032 H         1 <0>         0.0665
     37 H15        -0.3302    5.0671   -7.1546 H         1 <0>         0.0693
     38 H16        -0.9965    3.9271   -9.2829 H         1 <0>         0.0728
     39 H17         0.7453    3.8295   -8.9528 H         1 <0>         0.0752
     40 H18         0.0024   -0.8192   -6.8222 H         1 <0>         0.1249
     41 H19        -0.4703   -1.8529   -9.0053 H         1 <0>         0.1211
     42 H20        -0.8386   -0.4366  -10.9831 H         1 <0>         0.1186
     43 H21        -0.7430    2.0140  -10.7961 H         1 <0>         0.1199
@<TRIPOS>BOND
     1    1    2 1
     2    1   23 1
     3    1   24 1
     4    1   25 1
     5    2    3 2
     6    2    7 1
     7    3    4 1
     8    3   26 1
     9    4    5 2
    10    4    6 1
    11    7    8 2
    12    7   27 1
    13    8    9 1
    14    8   28 1
    15    9   10 2
    16    9   29 1
    17   10   11 1
    18   10   12 1
    19   11   30 1
    20   11   31 1
    21   11   32 1
    22   12   13 2
    23   12   33 1
    24   13   18 1
    25   13   14 1
    26   14   15 1
    27   14   34 1
    28   14   35 1
    29   15   16 1
    30   15   36 1
    31   15   37 1
    32   16   17 1
    33   16   38 1
    34   16   39 1
    35   17   22 ar
    36   17   18 ar
    37   18   19 ar
    38   19   20 ar
    39   19   40 1
    40   20   21 ar
    41   20   41 1
    42   21   22 ar
    43   21   42 1
    44   22   43 1
@<TRIPOS>MOLECULE
CHEMBL111589
   58    59     0     0     0
SMALL
USER_CHARGES

@<TRIPOS>ATOM
      1 C1         -0.7508    1.3661    0.0839 C.3       1 <0>        -0.0978
      2 C2         -0.2191   -0.0428    0.0243 C.2       1 <0>        -0.0735
      3 C3          0.1256   -0.6916    1.1752 C.2       1 <0>        -0.1447
      4 C4          0.1280    0.0004    2.3983 C.2       1 <0>         0.4414
      5 O1         -0.0901    1.3157    2.4205 O.co2     1 <0>        -0.6926
      6 O2          0.3483   -0.6583    3.5366 O.co2     1 <0>        -0.7176
      7 C5         -0.0784   -0.6875   -1.2134 C.2       1 <0>        -0.0917
      8 C6         -0.4228   -0.0392   -2.3631 C.2       1 <0>        -0.1339
      9 C7         -0.2816   -0.6859   -3.6045 C.2       1 <0>        -0.0960
     10 C8         -0.6241   -0.0412   -4.7479 C.2       1 <0>        -0.0927
     11 C9         -0.4729   -0.7339   -6.0777 C.3       1 <0>        -0.1043
     12 C10        -1.1418    1.3306   -4.6899 C.ar      1 <0>        -0.0712
     13 C11        -0.3353    2.4064   -5.0703 C.ar      1 <0>        -0.0698
     14 C12        -0.8217    3.7013   -5.0196 C.ar      1 <0>        -0.0986
     15 C13        -2.1144    3.9368   -4.5939 C.ar      1 <0>        -0.0234
     16 C14        -2.9239    2.8758   -4.2093 C.ar      1 <0>        -0.2088
     17 C15        -2.4559    1.5760   -4.2567 C.ar      1 <0>         0.1386
     18 O3         -3.2569    0.5462   -3.8832 O.3       1 <0>        -0.3033
     19 C16        -4.5798    0.8756   -3.4548 C.3       1 <0>         0.0267
     20 C17        -2.7059    5.3217   -4.5328 C.3       1 <0>        -0.0238
     21 C18        -1.6041    6.3788   -4.5599 C.3       1 <0>        -0.1125
     22 C19        -0.6789    6.0833   -5.7461 C.3       1 <0>        -0.1098
     23 C20         0.1079    4.8113   -5.4377 C.3       1 <0>        -0.0174
     24 C21         1.0986    5.0927   -4.3062 C.3       1 <0>        -0.1417
     25 C22         0.8791    4.3798   -6.6867 C.3       1 <0>        -0.1415
     26 C23        -3.6321    5.5279   -5.7330 C.3       1 <0>        -0.1370
     27 C24        -3.5141    5.4685   -3.2421 C.3       1 <0>        -0.1432
     28 H1          0.0826    2.0677    0.1199 H         1 <0>         0.0640
     29 H2         -1.3547    1.5643   -0.8016 H         1 <0>         0.0300
     30 H3         -1.3648    1.4852    0.9766 H         1 <0>         0.0940
     31 H4          0.3965   -1.7367    1.1455 H         1 <0>         0.1072
     32 H5          0.3027   -1.6971   -1.2561 H         1 <0>         0.1102
     33 H6         -0.8038    0.9704   -2.3204 H         1 <0>         0.1187
     34 H7          0.0994   -1.6955   -3.6472 H         1 <0>         0.1129
     35 H8         -1.3938   -1.2656   -6.3172 H         1 <0>         0.0656
     36 H9         -0.2688    0.0060   -6.8517 H         1 <0>         0.0596
     37 H10         0.3532   -1.4431   -6.0261 H         1 <0>         0.0630
     38 H11         0.6752    2.2262   -5.4060 H         1 <0>         0.1277
     39 H12        -3.9320    3.0682   -3.8730 H         1 <0>         0.1273
     40 H13        -4.5275    1.5351   -2.5885 H         1 <0>         0.0559
     41 H14        -5.1087    1.3796   -4.2637 H         1 <0>         0.0506
     42 H15        -5.1122   -0.0366   -3.1854 H         1 <0>         0.0985
     43 H16        -2.0471    7.3677   -4.6773 H         1 <0>         0.0657
     44 H17        -1.0346    6.3391   -3.6313 H         1 <0>         0.0716
     45 H18        -1.2734    5.9378   -6.6481 H         1 <0>         0.0669
     46 H19         0.0103    6.9154   -5.8903 H         1 <0>         0.0654
     47 H20         1.6759    4.1922   -4.0965 H         1 <0>         0.0574
     48 H21         1.7729    5.8952   -4.6050 H         1 <0>         0.0557
     49 H22         0.5527    5.3910   -3.4112 H         1 <0>         0.0598
     50 H23         0.1764    4.1687   -7.4927 H         1 <0>         0.0547
     51 H24         1.5528    5.1803   -6.9923 H         1 <0>         0.0560
     52 H25         1.4575    3.4830   -6.4648 H         1 <0>         0.0586
     53 H26        -4.4317    4.7876   -5.7063 H         1 <0>         0.0536
     54 H27        -4.0620    6.5287   -5.6925 H         1 <0>         0.0573
     55 H28        -3.0625    5.4142   -6.6554 H         1 <0>         0.0580
     56 H29        -2.8601    5.3124   -2.3841 H         1 <0>         0.0608
     57 H30        -3.9437    6.4692   -3.1942 H         1 <0>         0.0576
     58 H31        -4.3143    4.7285   -3.2283 H         1 <0>         0.0558
@<TRIPOS>BOND
     1    1    2 1
     2    1   28 1
     3    1   29 1
     4    1   30 1
     5    2    3 2
     6    2    7 1
     7    3    4 1
     8    3   31 1
     9    4    5 2
    10    4    6 1
    11    7    8 2
    12    7   32 1
    13    8    9 1
    14    8   33 1
    15    9   10 2
    16    9   34 1
    17   10   11 1
    18   10   12 1
    19   11   35 1
    20   11   36 1
    21   11   37 1
    22   12   17 ar
    23   12   13 ar
    24   13   14 ar
    25   13   38 1
    26   14   23 1
    27   14   15 ar
    28   15   16 ar
    29   15   20 1
    30   16   17 ar
    31   16   39 1
    32   17   18 1
    33   18   19 1
    34   19   40 1
    35   19   41 1
    36   19   42 1
    37   20   21 1
    38   20   26 1
    39   20   27 1
    40   21   22 1
    41   21   43 1
    42   21   44 1
    43   22   23 1
    44   22   45 1
    45   22   46 1
    46   23   24 1
    47   23   25 1
    48   24   47 1
    49   24   48 1
    50   24   49 1
    51   25   50 1
    52   25   51 1
    53   25   52 1
    54   26   53 1
    55   26   54 1
    56   26   55 1
    57   27   56 1
    58   27   57 1
    59   27   58 1
@<TRIPOS>MOLECULE
CHEMBL109117
   52    54     0     0     0
SMALL
USER_CHARGES

@<TRIPOS>ATOM
      1 C1         -0.0184    1.5028    0.0103 C.3       1 <0>        -0.1119
      2 C2          0.0021   -0.0041    0.0020 C.ar      1 <0>        -0.0720
      3 C3          0.0058   -0.6899   -1.1923 C.ar      1 <0>        -0.1216
      4 C4          0.0266   -2.0796   -1.2131 C.ar      1 <0>        -0.0620
      5 C5          0.0468   -2.7839   -0.0284 C.ar      1 <0>        -0.0679
      6 C6          0.0390   -2.1019    1.1788 C.ar      1 <0>        -0.0838
      7 C7          0.0231   -0.7111    1.2028 C.ar      1 <0>        -0.0290
      8 C8          0.0222    0.0137    2.4968 C.2       1 <0>        -0.0209
      9 C9          1.1372    0.6209    2.9253 C.2       1 <0>        -0.1709
     10 C10        -1.2108    0.0665    3.3150 C.ar      1 <0>         0.1358
     11 C11        -1.2029    0.7563    4.5289 C.ar      1 <0>        -0.1772
     12 C12        -2.3556    0.8014    5.2855 C.ar      1 <0>        -0.0475
     13 C13        -3.4985    0.1467    4.7999 C.ar      1 <0>        -0.1762
     14 C14        -3.4282   -0.5234    3.5750 C.ar      1 <0>         0.1279
     15 N1         -2.3113   -0.5385    2.8818 N.ar      1 <0>        -0.4766
     16 C15        -4.7542    0.1650    5.5706 C.2       1 <0>         0.5236
     17 O1         -4.8059    0.7536    6.6416 O.co2     1 <0>        -0.6839
     18 O2         -5.7449   -0.4085    5.1394 O.co2     1 <0>        -0.6814
     19 C16         0.0862   -4.2891    0.0191 C.3       1 <0>        -0.0205
     20 C17        -0.3381   -4.8808   -1.3234 C.3       1 <0>        -0.1113
     21 C18         0.4833   -4.2085   -2.4298 C.3       1 <0>        -0.1098
     22 C19         0.0220   -2.7583   -2.5584 C.3       1 <0>        -0.0218
     23 C20        -1.3955   -2.7288   -3.1336 C.3       1 <0>        -0.1391
     24 C21         0.9648   -2.0110   -3.5037 C.3       1 <0>        -0.1402
     25 C22         1.5096   -4.7464    0.3444 C.3       1 <0>        -0.1378
     26 C23        -0.8637   -4.7844    1.1114 C.3       1 <0>        -0.1428
     27 H1          1.0042    1.8801    0.0026 H         1 <0>         0.0660
     28 H2         -0.5455    1.8639   -0.8728 H         1 <0>         0.0615
     29 H3         -0.5286    1.8543    0.9071 H         1 <0>         0.0674
     30 H4         -0.0079   -0.1420   -2.1229 H         1 <0>         0.1181
     31 H5          0.0497   -2.6543    2.1068 H         1 <0>         0.1182
     32 H6          1.1365    1.1487    3.8676 H         1 <0>         0.1099
     33 H7          2.0365    0.5824    2.3285 H         1 <0>         0.1073
     34 H8         -0.3048    1.2485    4.8717 H         1 <0>         0.1282
     35 H9         -2.3781    1.3274    6.2285 H         1 <0>         0.1379
     36 H10        -4.3017   -1.0304    3.1923 H         1 <0>         0.1614
     37 H11        -0.1499   -5.9544   -1.3274 H         1 <0>         0.0645
     38 H12        -1.3991   -4.6930   -1.4883 H         1 <0>         0.0694
     39 H13         1.5414   -4.2356   -2.1694 H         1 <0>         0.0672
     40 H14         0.3235   -4.7296   -3.3737 H         1 <0>         0.0639
     41 H15        -1.7208   -1.6945   -3.2451 H         1 <0>         0.0555
     42 H16        -1.4028   -3.2190   -4.1071 H         1 <0>         0.0550
     43 H17        -2.0725   -3.2518   -2.4582 H         1 <0>         0.0596
     44 H18         1.9744   -2.0211   -3.0929 H         1 <0>         0.0549
     45 H19         0.9642   -2.4992   -4.4783 H         1 <0>         0.0550
     46 H20         0.6274   -0.9803   -3.6134 H         1 <0>         0.0579
     47 H21         1.8089   -4.3424    1.3115 H         1 <0>         0.0551
     48 H22         1.5423   -5.8353    0.3797 H         1 <0>         0.0556
     49 H23         2.1917   -4.3872   -0.4262 H         1 <0>         0.0562
     50 H24        -1.8778   -4.4524    0.8889 H         1 <0>         0.0595
     51 H25        -0.8380   -5.8734    1.1489 H         1 <0>         0.0547
     52 H26        -0.5521   -4.3802    2.0745 H         1 <0>         0.0588
@<TRIPOS>BOND
     1    1    2 1
     2    1   27 1
     3    1   28 1
     4    1   29 1
     5    2    7 ar
     6    2    3 ar
     7    3    4 ar
     8    3   30 1
     9    4   22 1
    10    4    5 ar
    11    5    6 ar
    12    5   19 1
    13    6    7 ar
    14    6   31 1
    15    7    8 1
    16    8    9 2
    17    8   10 1
    18    9   32 1
    19    9   33 1
    20   10   15 ar
    21   10   11 ar
    22   11   12 ar
    23   11   34 1
    24   12   13 ar
    25   12   35 1
    26   13   14 ar
    27   13   16 1
    28   14   15 ar
    29   14   36 1
    30   16   17 2
    31   16   18 1
    32   19   20 1
    33   19   25 1
    34   19   26 1
    35   20   21 1
    36   20   37 1
    37   20   38 1
    38   21   22 1
    39   21   39 1
    40   21   40 1
    41   22   23 1
    42   22   24 1
    43   23   41 1
    44   23   42 1
    45   23   43 1
    46   24   44 1
    47   24   45 1
    48   24   46 1
    49   25   47 1
    50   25   48 1
    51   25   49 1
    52   26   50 1
    53   26   51 1
    54   26   52 1
@<TRIPOS>MOLECULE
CHEMBL80424
   61    63     0     0     0
SMALL
USER_CHARGES

@<TRIPOS>ATOM
      1 C1         -1.5655    0.7856    0.1129 C.3       1 <0>        -0.0877
      2 C2         -1.1709   -0.6613   -0.0342 C.2       1 <0>        -0.0853
      3 C3         -1.1301   -1.4667    1.0550 C.2       1 <0>        -0.1862
      4 C4         -1.2828   -0.9154    2.3477 C.2       1 <0>         0.5007
      5 O1         -1.3546    0.2993    2.4912 O.co2     1 <0>        -0.6872
      6 O2         -1.3433   -1.6524    3.3247 O.co2     1 <0>        -0.7073
      7 C5         -0.8321   -1.1962   -1.3520 C.2       1 <0>        -0.0955
      8 C6         -0.8723   -0.4028   -2.4251 C.2       1 <0>        -0.1593
      9 C7         -0.5231   -0.9542   -3.7834 C.3       1 <0>        -0.0463
     10 H1         -0.1750   -1.9837   -3.6997 H         1 <0>         0.0768
     11 C8          0.5444   -0.0750   -4.4672 C.3       1 <0>        -0.0918
     12 C9         -0.1951    0.8950   -5.3650 C.2       1 <0>        -0.1128
     13 C10         0.3452    1.8112   -6.1297 C.2       1 <0>        -0.2011
     14 C11        -1.6786    0.6084   -5.2151 C.3       1 <0>        -0.0910
     15 C12        -1.7424   -0.8674   -4.7362 C.3       1 <0>        -0.0409
     16 H2         -1.6277   -1.5529   -5.5759 H         1 <0>         0.0824
     17 C13        -3.0245   -1.1386   -3.9921 C.ar      1 <0>        -0.0678
     18 C14        -3.5569   -0.1764   -3.1540 C.ar      1 <0>        -0.1020
     19 C15        -4.7292   -0.4333   -2.4741 C.ar      1 <0>        -0.1119
     20 C16        -5.3808   -1.6508   -2.6253 C.ar      1 <0>        -0.0624
     21 C17        -4.8533   -2.6068   -3.4637 C.ar      1 <0>        -0.0634
     22 C18        -3.6737   -2.3454   -4.1491 C.ar      1 <0>        -0.1168
     23 C19        -5.5139   -3.9418   -3.6880 C.3       1 <0>        -0.0212
     24 C20        -6.5223   -4.2354   -2.5792 C.3       1 <0>        -0.1128
     25 C21        -7.4532   -3.0253   -2.4386 C.3       1 <0>        -0.1090
     26 C22        -6.6521   -1.8674   -1.8469 C.3       1 <0>        -0.0227
     27 C23        -7.4968   -0.5926   -1.8955 C.3       1 <0>        -0.1408
     28 C24        -6.3044   -2.1861   -0.3915 C.3       1 <0>        -0.1411
     29 C25        -6.2369   -3.9267   -5.0364 C.3       1 <0>        -0.1365
     30 C26        -4.4458   -5.0372   -3.7016 C.3       1 <0>        -0.1416
     31 H3         -0.6960    1.3707    0.4125 H         1 <0>         0.0598
     32 H4         -1.9434    1.1578   -0.8393 H         1 <0>         0.0277
     33 H5         -2.3426    0.8749    0.8721 H         1 <0>         0.0861
     34 H6         -0.9809   -2.5296    0.9353 H         1 <0>         0.0925
     35 H7         -0.5493   -2.2332   -1.4574 H         1 <0>         0.1022
     36 H8         -1.1551    0.6342   -2.3196 H         1 <0>         0.1140
     37 H9          1.1132    0.4726   -3.7157 H         1 <0>         0.0790
     38 H10         1.2139   -0.6966   -5.0618 H         1 <0>         0.0731
     39 H11         1.4187    1.9268   -6.1579 H         1 <0>         0.0992
     40 H12        -0.2828    2.4510   -6.7319 H         1 <0>         0.0989
     41 H13        -2.1206    1.2696   -4.4697 H         1 <0>         0.0844
     42 H14        -2.1866    0.7197   -6.1730 H         1 <0>         0.0690
     43 H15        -3.0565    0.7729   -3.0320 H         1 <0>         0.1195
     44 H16        -5.1437    0.3182   -1.8184 H         1 <0>         0.1190
     45 H17        -3.2590   -3.0951   -4.8067 H         1 <0>         0.1152
     46 H18        -7.1056   -5.1191   -2.8381 H         1 <0>         0.0636
     47 H19        -5.9960   -4.4047   -1.6398 H         1 <0>         0.0706
     48 H20        -7.8382   -2.7425   -3.4184 H         1 <0>         0.0657
     49 H21        -8.2820   -3.2747   -1.7760 H         1 <0>         0.0645
     50 H22        -7.7387   -0.3563   -2.9317 H         1 <0>         0.0532
     51 H23        -8.4179   -0.7455   -1.3331 H         1 <0>         0.0556
     52 H24        -6.9356    0.2321   -1.4563 H         1 <0>         0.0601
     53 H25        -5.7492   -1.3533    0.0402 H         1 <0>         0.0607
     54 H26        -7.2221   -2.3435    0.1752 H         1 <0>         0.0555
     55 H27        -5.6942   -3.0885   -0.3529 H         1 <0>         0.0586
     56 H28        -5.5170   -3.7369   -5.8325 H         1 <0>         0.0538
     57 H29        -6.7163   -4.8914   -5.2024 H         1 <0>         0.0547
     58 H30        -6.9923   -3.1409   -5.0347 H         1 <0>         0.0568
     59 H31        -3.9214   -5.0452   -2.7461 H         1 <0>         0.0581
     60 H32        -4.9201   -6.0051   -3.8638 H         1 <0>         0.0547
     61 H33        -3.7351   -4.8418   -4.5046 H         1 <0>         0.0568
@<TRIPOS>BOND
     1    1    2 1
     2    1   31 1
     3    1   32 1
     4    1   33 1
     5    2    3 2
     6    2    7 1
     7    3    4 1
     8    3   34 1
     9    4    5 2
    10    4    6 1
    11    7    8 2
    12    7   35 1
    13    8    9 1
    14    8   36 1
    15    9   10 1
    16    9   15 1
    17    9   11 1
    18   11   12 1
    19   11   37 1
    20   11   38 1
    21   12   13 2
    22   12   14 1
    23   13   39 1
    24   13   40 1
    25   14   15 1
    26   14   41 1
    27   14   42 1
    28   15   16 1
    29   15   17 1
    30   17   22 ar
    31   17   18 ar
    32   18   19 ar
    33   18   43 1
    34   19   20 ar
    35   19   44 1
    36   20   26 1
    37   20   21 ar
    38   21   22 ar
    39   21   23 1
    40   22   45 1
    41   23   24 1
    42   23   29 1
    43   23   30 1
    44   24   25 1
    45   24   46 1
    46   24   47 1
    47   25   26 1
    48   25   48 1
    49   25   49 1
    50   26   27 1
    51   26   28 1
    52   27   50 1
    53   27   51 1
    54   27   52 1
    55   28   53 1
    56   28   54 1
    57   28   55 1
    58   29   56 1
    59   29   57 1
    60   29   58 1
    61   30   59 1
    62   30   60 1
    63   30   61 1
@<TRIPOS>MOLECULE
CHEMBL60037
   58    61     0     0     0
SMALL
USER_CHARGES

@<TRIPOS>ATOM
      1 C1         -0.0187    1.5258    0.0104 C.3       1 <0>        -0.1432
      2 C2          0.0021   -0.0041    0.0020 C.3       1 <0>        -0.0223
      3 C3          0.6935   -0.4914   -1.2697 C.3       1 <0>        -0.1125
      4 C4          0.8989   -2.0067   -1.1582 C.3       1 <0>        -0.1099
      5 C5          1.9621   -2.2714   -0.0941 C.3       1 <0>        -0.0222
      6 C6          1.6287   -1.5413    1.1806 C.ar      1 <0>        -0.0600
      7 C7          0.7315   -0.4976    1.2240 C.ar      1 <0>        -0.0635
      8 C8          0.4736    0.1376    2.4317 C.ar      1 <0>        -0.1148
      9 C9          1.1061   -0.2707    3.5879 C.ar      1 <0>        -0.1042
     10 C10         2.0037   -1.3209    3.5450 C.ar      1 <0>        -0.0609
     11 C11         2.2628   -1.9521    2.3458 C.ar      1 <0>        -0.1053
     12 C12         2.6974   -1.7746    4.8036 C.3       1 <0>         0.0052
     13 C13         1.6546   -2.1899    5.8508 C.3       1 <0>         0.0588
     14 N1          2.3084   -2.3750    7.1537 N.3       1 <0>        -0.5181
     15 C14         2.7180   -1.0868    7.7389 C.3       1 <0>         0.1446
     16 C15         3.5092   -0.3283    6.7044 C.2       1 <0>        -0.1104
     17 C16         3.5044   -0.6374    5.3804 C.2       1 <0>         0.0024
     18 N2          4.3048    0.2163    4.7582 N.2       1 <0>        -0.4604
     19 C17         4.8053    1.0491    5.6517 C.2       1 <0>         0.2356
     20 O1          4.3159    0.7228    6.8665 O.3       1 <0>        -0.1786
     21 C18         5.7356    2.1440    5.3717 C.2       1 <0>        -0.0851
     22 C19         6.1783    2.9317    6.3813 C.2       1 <0>        -0.1230
     23 C20         7.0777    3.9904    6.1106 C.2       1 <0>         0.5006
     24 O2          7.4560    4.1946    4.9634 O.co2     1 <0>        -0.6850
     25 O3          7.4780    4.7027    7.0235 O.co2     1 <0>        -0.6887
     26 C21         3.4519   -3.2905    7.0435 C.3       1 <0>         0.0107
     27 C22         3.3212   -1.7931   -0.6088 C.3       1 <0>        -0.1404
     28 C23         2.0307   -3.7736    0.1880 C.3       1 <0>        -0.1410
     29 C24        -1.4352   -0.5282    0.0264 C.3       1 <0>        -0.1375
     30 H1          1.0039    1.9031    0.0027 H         1 <0>         0.0584
     31 H2         -0.5459    1.8868   -0.8726 H         1 <0>         0.0565
     32 H3         -0.5289    1.8773    0.9072 H         1 <0>         0.0581
     33 H4          0.0697   -0.2681   -2.1352 H         1 <0>         0.0654
     34 H5          1.6591    0.0032   -1.3751 H         1 <0>         0.0699
     35 H6         -0.0373   -2.4838   -0.8684 H         1 <0>         0.0676
     36 H7          1.2323   -2.4035   -2.1171 H         1 <0>         0.0654
     37 H8         -0.2276    0.9584    2.4660 H         1 <0>         0.1193
     38 H9          0.9003    0.2283    4.5234 H         1 <0>         0.1130
     39 H10         2.9646   -2.7724    2.3130 H         1 <0>         0.1185
     40 H11         3.3530   -2.6163    4.5805 H         1 <0>         0.0931
     41 H12         0.8944   -1.4132    5.9336 H         1 <0>         0.0847
     42 H13         1.1853   -3.1248    5.5444 H         1 <0>         0.0927
     43 H14         1.8347   -0.5130    8.0194 H         1 <0>         0.1026
     44 H15         3.3371   -1.2630    8.6186 H         1 <0>         0.0978
     45 H16         6.0691    2.3240    4.3604 H         1 <0>         0.1637
     46 H17         5.8448    2.7518    7.3926 H         1 <0>         0.1062
     47 H18         4.1792   -2.8808    6.3426 H         1 <0>         0.0376
     48 H19         3.9174   -3.4098    8.0219 H         1 <0>         0.0724
     49 H20         3.1076   -4.2604    6.6844 H         1 <0>         0.0745
     50 H21         3.2741   -0.7248   -0.8203 H         1 <0>         0.0593
     51 H22         4.0829   -1.9804    0.1481 H         1 <0>         0.0574
     52 H23         3.5749   -2.3332   -1.5210 H         1 <0>         0.0562
     53 H24         2.2908   -4.3038   -0.7282 H         1 <0>         0.0565
     54 H25         2.7886   -3.9666    0.9472 H         1 <0>         0.0584
     55 H26         1.0614   -4.1207    0.5459 H         1 <0>         0.0553
     56 H27        -1.9692   -0.1652   -0.8518 H         1 <0>         0.0562
     57 H28        -1.4246   -1.6181    0.0205 H         1 <0>         0.0573
     58 H29        -1.9356   -0.1745    0.9278 H         1 <0>         0.0550
@<TRIPOS>BOND
     1    1    2 1
     2    1   30 1
     3    1   31 1
     4    1   32 1
     5    2    7 1
     6    2    3 1
     7    2   29 1
     8    3    4 1
     9    3   33 1
    10    3   34 1
    11    4    5 1
    12    4   35 1
    13    4   36 1
    14    5    6 1
    15    5   27 1
    16    5   28 1
    17    6   11 ar
    18    6    7 ar
    19    7    8 ar
    20    8    9 ar
    21    8   37 1
    22    9   10 ar
    23    9   38 1
    24   10   11 ar
    25   10   12 1
    26   11   39 1
    27   12   17 1
    28   12   13 1
    29   12   40 1
    30   13   14 1
    31   13   41 1
    32   13   42 1
    33   14   15 1
    34   14   26 1
    35   15   16 1
    36   15   43 1
    37   15   44 1
    38   16   20 1
    39   16   17 2
    40   17   18 1
    41   18   19 2
    42   19   20 1
    43   19   21 1
    44   21   22 2
    45   21   45 1
    46   22   23 1
    47   22   46 1
    48   23   24 2
    49   23   25 1
    50   26   47 1
    51   26   48 1
    52   26   49 1
    53   27   50 1
    54   27   51 1
    55   27   52 1
    56   28   53 1
    57   28   54 1
    58   28   55 1
    59   29   56 1
    60   29   57 1
    61   29   58 1
@<TRIPOS>MOLECULE
CHEMBL60037__1
   58    61     0     0     0
SMALL
USER_CHARGES

@<TRIPOS>ATOM
      1 C1         -0.0187    1.5258    0.0104 C.3       1 <0>        -0.1408
      2 C2          0.0021   -0.0041    0.0020 C.3       1 <0>        -0.0227
      3 C3          0.6935   -0.4914   -1.2697 C.3       1 <0>        -0.1100
      4 C4          0.8989   -2.0067   -1.1582 C.3       1 <0>        -0.1124
      5 C5          1.9621   -2.2714   -0.0941 C.3       1 <0>        -0.0217
      6 C6          1.6287   -1.5413    1.1806 C.ar      1 <0>        -0.0608
      7 C7          0.7315   -0.4976    1.2240 C.ar      1 <0>        -0.0630
      8 C8          0.4736    0.1376    2.4317 C.ar      1 <0>        -0.1161
      9 C9          1.1061   -0.2707    3.5879 C.ar      1 <0>        -0.1043
     10 C10         2.0037   -1.3209    3.5450 C.ar      1 <0>        -0.0642
     11 C11         2.2628   -1.9521    2.3458 C.ar      1 <0>        -0.1027
     12 C12         2.6974   -1.7746    4.8036 C.3       1 <0>         0.0441
     13 C13         3.4861   -0.6066    5.4122 C.3       1 <0>         0.0622
     14 N1          3.9385   -0.9658    6.7633 N.3       1 <0>        -0.5405
     15 C14         2.8153   -1.0027    7.7157 C.3       1 <0>         0.1516
     16 C15         1.7285   -1.8678    7.1309 C.2       1 <0>        -0.0807
     17 C16         1.6737   -2.2201    5.8189 C.2       1 <0>         0.0151
     18 N2          0.6039   -2.9827    5.6445 N.2       1 <0>        -0.4611
     19 C17        -0.0111   -3.1139    6.8050 C.2       1 <0>         0.2368
     20 O1          0.6775   -2.4233    7.7380 O.3       1 <0>        -0.1801
     21 C18        -1.2353   -3.8812    7.0410 C.2       1 <0>        -0.0830
     22 C19        -1.7700   -3.9381    8.2845 C.2       1 <0>        -0.1249
     23 C20        -2.9535   -4.6799    8.5127 C.2       1 <0>         0.5009
     24 O2         -3.4945   -5.2706    7.5856 O.co2     1 <0>        -0.6853
     25 O3         -3.4371   -4.7314    9.6372 O.co2     1 <0>        -0.6895
     26 C21         4.9914   -0.0520    7.2262 C.3       1 <0>         0.0287
     27 C22         3.3212   -1.7931   -0.6088 C.3       1 <0>        -0.1377
     28 C23         2.0307   -3.7736    0.1880 C.3       1 <0>        -0.1434
     29 C24        -1.4352   -0.5282    0.0264 C.3       1 <0>        -0.1405
     30 H1          1.0039    1.9031    0.0027 H         1 <0>         0.0549
     31 H2         -0.5459    1.8868   -0.8726 H         1 <0>         0.0562
     32 H3         -0.5289    1.8773    0.9072 H         1 <0>         0.0582
     33 H4          0.0697   -0.2681   -2.1352 H         1 <0>         0.0651
     34 H5          1.6591    0.0032   -1.3751 H         1 <0>         0.0674
     35 H6         -0.0373   -2.4838   -0.8684 H         1 <0>         0.0701
     36 H7          1.2323   -2.4035   -2.1171 H         1 <0>         0.0655
     37 H8         -0.2276    0.9584    2.4660 H         1 <0>         0.1185
     38 H9          0.9003    0.2283    4.5234 H         1 <0>         0.1113
     39 H10         2.9646   -2.7724    2.3130 H         1 <0>         0.1209
     40 H11         3.3737   -2.5985    4.5756 H         1 <0>         0.0990
     41 H12         4.3511   -0.3878    4.7862 H         1 <0>         0.0888
     42 H13         2.8461    0.2741    5.4661 H         1 <0>         0.0458
     43 H14         3.1506   -1.4242    8.6633 H         1 <0>         0.0995
     44 H15         2.4356    0.0065    7.8755 H         1 <0>         0.0601
     45 H16        -1.7122   -4.4018    6.2237 H         1 <0>         0.1645
     46 H17        -1.2931   -3.4174    9.1018 H         1 <0>         0.1060
     47 H18         4.6050    0.9671    7.2464 H         1 <0>         0.0297
     48 H19         5.3080   -0.3404    8.2285 H         1 <0>         0.0736
     49 H20         5.8424   -0.1045    6.5472 H         1 <0>         0.0755
     50 H21         3.2741   -0.7248   -0.8203 H         1 <0>         0.0567
     51 H22         4.0829   -1.9804    0.1481 H         1 <0>         0.0556
     52 H23         3.5749   -2.3332   -1.5210 H         1 <0>         0.0562
     53 H24         2.2908   -4.3038   -0.7282 H         1 <0>         0.0560
     54 H25         2.7886   -3.9666    0.9472 H         1 <0>         0.0591
     55 H26         1.0614   -4.1207    0.5459 H         1 <0>         0.0592
     56 H27        -1.9692   -0.1652   -0.8518 H         1 <0>         0.0563
     57 H28        -1.4246   -1.6181    0.0205 H         1 <0>         0.0599
     58 H29        -1.9356   -0.1745    0.9278 H         1 <0>         0.0566
@<TRIPOS>BOND
     1    1    2 1
     2    1   30 1
     3    1   31 1
     4    1   32 1
     5    2    7 1
     6    2    3 1
     7    2   29 1
     8    3    4 1
     9    3   33 1
    10    3   34 1
    11    4    5 1
    12    4   35 1
    13    4   36 1
    14    5    6 1
    15    5   27 1
    16    5   28 1
    17    6   11 ar
    18    6    7 ar
    19    7    8 ar
    20    8    9 ar
    21    8   37 1
    22    9   10 ar
    23    9   38 1
    24   10   11 ar
    25   10   12 1
    26   11   39 1
    27   12   17 1
    28   12   13 1
    29   12   40 1
    30   13   14 1
    31   13   41 1
    32   13   42 1
    33   14   15 1
    34   14   26 1
    35   15   16 1
    36   15   43 1
    37   15   44 1
    38   16   20 1
    39   16   17 2
    40   17   18 1
    41   18   19 2
    42   19   20 1
    43   19   21 1
    44   21   22 2
    45   21   45 1
    46   22   23 1
    47   22   46 1
    48   23   24 2
    49   23   25 1
    50   26   47 1
    51   26   48 1
    52   26   49 1
    53   27   50 1
    54   27   51 1
    55   27   52 1
    56   28   53 1
    57   28   54 1
    58   28   55 1
    59   29   56 1
    60   29   57 1
    61   29   58 1
@<TRIPOS>MOLECULE
CHEMBL1221640
   55    58     0     0     0
SMALL
USER_CHARGES

@<TRIPOS>ATOM
      1 C1          0.0208   -2.1153   -0.5028 C.3       1 <0>        -0.1738
      2 C2          1.1266   -1.6946    0.4674 C.3       1 <0>         0.1277
      3 N1          0.7106   -0.4894    1.1889 N.pl3     1 <0>        -0.5728
      4 C3          0.0163   -0.6025    2.3965 C.ar      1 <0>         0.1781
      5 C4         -1.3166   -0.2183    2.4748 C.ar      1 <0>        -0.1093
      6 C5         -1.9905   -0.3320    3.6713 C.ar      1 <0>        -0.1077
      7 C6         -1.3506   -0.8291    4.8005 C.ar      1 <0>        -0.0715
      8 C7         -0.0307   -1.2156    4.7249 C.ar      1 <0>        -0.0532
      9 C8          0.6518   -1.1040    3.5216 C.ar      1 <0>        -0.1247
     10 C9          0.7183   -1.7775    5.9050 C.3       1 <0>        -0.0210
     11 C10        -0.0046   -1.4445    7.2085 C.3       1 <0>        -0.1115
     12 C11        -1.4733   -1.8615    7.0675 C.3       1 <0>        -0.1101
     13 C12        -2.1489   -0.9175    6.0751 C.3       1 <0>        -0.0210
     14 C13        -2.2594    0.4752    6.6989 C.3       1 <0>        -0.1397
     15 C14        -3.5514   -1.4396    5.7569 C.3       1 <0>        -0.1411
     16 C15         0.8219   -3.2971    5.7597 C.3       1 <0>        -0.1374
     17 C16         2.1254   -1.1780    5.9413 C.3       1 <0>        -0.1420
     18 C17         1.0062    0.7653    0.6729 C.ar      1 <0>         0.3770
     19 C18         1.5353    0.8731   -0.6112 C.ar      1 <0>        -0.2285
     20 C19         1.8266    2.1232   -1.1173 C.ar      1 <0>        -0.0256
     21 C20         1.5763    3.2429   -0.3123 C.ar      1 <0>        -0.0506
     22 C21         1.0455    3.0552    0.9625 C.ar      1 <0>         0.1565
     23 N2          0.7763    1.8445    1.4065 N.ar      1 <0>        -0.5243
     24 C22         1.8718    4.6046   -0.8087 C.2       1 <0>         0.0882
     25 N3          2.3730    4.9282   -2.0024 N.2       1 <0>        -0.3730
     26 N4          2.4793    6.2124   -2.0424 N.2       1 <0>        -0.1924
     27 N5          2.0675    6.7078   -0.9284 N.2       1 <0>        -0.1914
     28 N6          1.6841    5.7518   -0.1531 N.2       1 <0>        -0.3716
     29 H1         -0.1631   -1.3109   -1.2150 H         1 <0>         0.0620
     30 H2          0.3303   -3.0121   -1.0397 H         1 <0>         0.0645
     31 H3         -0.8924   -2.3227    0.0549 H         1 <0>         0.0570
     32 H4          1.3105   -2.4991    1.1795 H         1 <0>         0.0750
     33 H5          2.0398   -1.4873   -0.0903 H         1 <0>         0.0797
     34 H6         -1.8221    0.1679    1.6020 H         1 <0>         0.1160
     35 H7         -3.0260   -0.0315    3.7323 H         1 <0>         0.1201
     36 H8          1.6869   -1.4063    3.4625 H         1 <0>         0.1188
     37 H9          0.4545   -1.9905    8.0327 H         1 <0>         0.0649
     38 H10         0.0561   -0.3729    7.3985 H         1 <0>         0.0698
     39 H11        -1.5304   -2.8852    6.6975 H         1 <0>         0.0673
     40 H12        -1.9691   -1.7924    8.0358 H         1 <0>         0.0647
     41 H13        -2.7588    1.1473    6.0010 H         1 <0>         0.0569
     42 H14        -2.8365    0.4153    7.6216 H         1 <0>         0.0552
     43 H15        -1.2617    0.8552    6.9183 H         1 <0>         0.0590
     44 H16        -3.4769   -2.4279    5.3032 H         1 <0>         0.0550
     45 H17        -4.1322   -1.5050    6.6769 H         1 <0>         0.0555
     46 H18        -4.0443   -0.7578    5.0637 H         1 <0>         0.0588
     47 H19         1.3549   -3.5386    4.8401 H         1 <0>         0.0544
     48 H20         1.3634   -3.7075    6.6120 H         1 <0>         0.0561
     49 H21        -0.1788   -3.7277    5.7234 H         1 <0>         0.0573
     50 H22         2.0564   -0.0942    6.0348 H         1 <0>         0.0583
     51 H23         2.6708   -1.5823    6.7941 H         1 <0>         0.0556
     52 H24         2.6517   -1.4304    5.0207 H         1 <0>         0.0573
     53 H25         1.7157   -0.0117   -1.2036 H         1 <0>         0.1285
     54 H26         2.2378    2.2361   -2.1096 H         1 <0>         0.1380
     55 H27         0.8492    3.9111    1.5911 H         1 <0>         0.1609
@<TRIPOS>BOND
     1    1    2 1
     2    1   29 1
     3    1   30 1
     4    1   31 1
     5    2    3 1
     6    2   32 1
     7    2   33 1
     8    3    4 1
     9    3   18 1
    10    4    9 ar
    11    4    5 ar
    12    5    6 ar
    13    5   34 1
    14    6    7 ar
    15    6   35 1
    16    7   13 1
    17    7    8 ar
    18    8    9 ar
    19    8   10 1
    20    9   36 1
    21   10   11 1
    22   10   16 1
    23   10   17 1
    24   11   12 1
    25   11   37 1
    26   11   38 1
    27   12   13 1
    28   12   39 1
    29   12   40 1
    30   13   14 1
    31   13   15 1
    32   14   41 1
    33   14   42 1
    34   14   43 1
    35   15   44 1
    36   15   45 1
    37   15   46 1
    38   16   47 1
    39   16   48 1
    40   16   49 1
    41   17   50 1
    42   17   51 1
    43   17   52 1
    44   18   23 ar
    45   18   19 ar
    46   19   20 ar
    47   19   53 1
    48   20   21 ar
    49   20   54 1
    50   21   22 ar
    51   21   24 1
    52   22   23 ar
    53   22   55 1
    54   24   28 2
    55   24   25 1
    56   25   26 1
    57   26   27 2
    58   27   28 1
@<TRIPOS>MOLECULE
CHEMBL1221640__1
   56    59     0     0     0
SMALL
USER_CHARGES

@<TRIPOS>ATOM
      1 C1         -0.0328    1.5154    0.0192 C.3       1 <0>        -0.1820
      2 C2         -0.0078   -0.0143    0.0003 C.3       1 <0>         0.1158
      3 N1          0.6878   -0.4765   -1.2033 N.pl3     1 <0>        -0.5933
      4 C3          2.0691   -0.6872   -1.1747 C.ar      1 <0>         0.1768
      5 C4          2.8028   -0.3582   -0.0416 C.ar      1 <0>        -0.1636
      6 C5          4.1645   -0.5680   -0.0255 C.ar      1 <0>        -0.0741
      7 C6          4.8114   -1.1074   -1.1311 C.ar      1 <0>        -0.0865
      8 C7          4.0862   -1.4394   -2.2541 C.ar      1 <0>        -0.0131
      9 C8          2.7142   -1.2309   -2.2744 C.ar      1 <0>        -0.1792
     10 C9          4.7209   -2.0424   -3.4800 C.3       1 <0>        -0.0265
     11 C10         6.2311   -1.8149   -3.4706 C.3       1 <0>        -0.1130
     12 C11         6.7816   -2.2771   -2.1163 C.3       1 <0>        -0.1137
     13 C12         6.3029   -1.3014   -1.0434 C.3       1 <0>        -0.0215
     14 C13         6.9994    0.0466   -1.2404 C.3       1 <0>        -0.1406
     15 C14         6.6593   -1.8554    0.3376 C.3       1 <0>        -0.1437
     16 C15         4.4374   -3.5457   -3.5072 C.3       1 <0>        -0.1402
     17 C16         4.1209   -1.3942   -4.7293 C.3       1 <0>        -0.1419
     18 C17        -0.0253   -0.7053   -2.3725 C.ar      1 <0>         0.3614
     19 C18        -0.6541   -1.9333   -2.5648 C.ar      1 <0>        -0.1049
     20 C19        -1.3610   -2.1535   -3.7291 C.ar      1 <0>         0.0098
     21 C20        -1.4180   -1.1243   -4.6788 C.ar      1 <0>         0.0727
     22 C21        -0.7631    0.0772   -4.4151 C.ar      1 <0>         0.1309
     23 N2         -0.1031    0.2494   -3.2881 N.ar      1 <0>        -0.4426
     24 C22        -2.1625   -1.3109   -5.9432 C.2       1 <0>         0.0374
     25 N3         -2.8354   -2.3998   -6.3205 N.2       1 <0>        -0.3363
     26 N4         -3.3406   -2.1596   -7.4820 N.2       1 <0>        -0.1558
     27 N5         -3.0149   -0.9700   -7.8494 N.2       1 <0>        -0.1554
     28 N6         -2.2984   -0.4213   -6.9287 N.2       1 <0>        -0.3456
     29 H1          0.9887    1.8955    0.0213 H         1 <0>         0.0681
     30 H2         -0.5547    1.8811   -0.8651 H         1 <0>         0.0520
     31 H3         -0.5503    1.8593    0.9147 H         1 <0>         0.0814
     32 H4          0.5141   -0.3801    0.8846 H         1 <0>         0.1006
     33 H5         -1.0293   -0.3944   -0.0018 H         1 <0>         0.0876
     34 H6          2.3082    0.0603    0.8225 H         1 <0>         0.1294
     35 H7          4.7348   -0.3104    0.8547 H         1 <0>         0.1302
     36 H8          2.1457   -1.4905   -3.1552 H         1 <0>         0.1168
     37 H9          6.6942   -2.3916   -4.2712 H         1 <0>         0.0711
     38 H10         6.4435   -0.7550   -3.6108 H         1 <0>         0.0701
     39 H11         6.4133   -3.2783   -1.8927 H         1 <0>         0.0702
     40 H12         7.8712   -2.2844   -2.1461 H         1 <0>         0.0704
     41 H13         6.6749    0.7400   -0.4645 H         1 <0>         0.0555
     42 H14         8.0790   -0.0897   -1.1775 H         1 <0>         0.0606
     43 H15         6.7404    0.4497   -2.2194 H         1 <0>         0.0578
     44 H16         6.1572   -2.8114    0.4862 H         1 <0>         0.0573
     45 H17         7.7379   -1.9971    0.4049 H         1 <0>         0.0608
     46 H18         6.3365   -1.1523    1.1055 H         1 <0>         0.0582
     47 H19         3.3605   -3.7120   -3.5340 H         1 <0>         0.0545
     48 H20         4.8952   -3.9858   -4.3931 H         1 <0>         0.0630
     49 H21         4.8546   -4.0103   -2.6137 H         1 <0>         0.0610
     50 H22         4.3119   -0.3213   -4.7093 H         1 <0>         0.0564
     51 H23         4.5778   -1.8281   -5.6188 H         1 <0>         0.0644
     52 H24         3.0456   -1.5716   -4.7498 H         1 <0>         0.0516
     53 H25        -0.5888   -2.7043   -1.8113 H         1 <0>         0.1824
     54 H26        -1.8579   -3.0962   -3.9046 H         1 <0>         0.1832
     55 H27        -0.8004    0.8767   -5.1402 H         1 <0>         0.2141
     56 H28         0.3411    1.0963   -3.1258 H         1 <0>         0.4399
@<TRIPOS>BOND
     1    1    2 1
     2    1   29 1
     3    1   30 1
     4    1   31 1
     5    2    3 1
     6    2   32 1
     7    2   33 1
     8    3    4 1
     9    3   18 1
    10    4    9 ar
    11    4    5 ar
    12    5    6 ar
    13    5   34 1
    14    6    7 ar
    15    6   35 1
    16    7   13 1
    17    7    8 ar
    18    8    9 ar
    19    8   10 1
    20    9   36 1
    21   10   11 1
    22   10   16 1
    23   10   17 1
    24   11   12 1
    25   11   37 1
    26   11   38 1
    27   12   13 1
    28   12   39 1
    29   12   40 1
    30   13   14 1
    31   13   15 1
    32   14   41 1
    33   14   42 1
    34   14   43 1
    35   15   44 1
    36   15   45 1
    37   15   46 1
    38   16   47 1
    39   16   48 1
    40   16   49 1
    41   17   50 1
    42   17   51 1
    43   17   52 1
    44   18   23 ar
    45   18   19 ar
    46   19   20 ar
    47   19   53 1
    48   20   21 ar
    49   20   54 1
    50   21   22 ar
    51   21   24 1
    52   22   23 ar
    53   22   55 1
    54   23   56 1
    55   24   28 2
    56   24   25 1
    57   25   26 1
    58   26   27 2
    59   27   28 1
@<TRIPOS>MOLECULE
CHEMBL310047
   61    64     0     0     0
SMALL
USER_CHARGES

@<TRIPOS>ATOM
      1 C1         -3.8442   -2.1344   -0.5281 C.3       1 <0>        -0.0909
      2 C2         -3.0957   -3.2962   -1.1289 C.2       1 <0>        -0.0910
      3 C3         -3.2797   -4.5465   -0.6397 C.2       1 <0>        -0.1832
      4 C4         -4.0514   -4.7421    0.5285 C.2       1 <0>         0.5000
      5 O1         -4.4573   -3.7760    1.1634 O.co2     1 <0>        -0.6861
      6 O2         -4.3144   -5.8776    0.9060 O.co2     1 <0>        -0.7063
      7 C5         -2.1712   -3.0744   -2.2395 C.2       1 <0>        -0.0902
      8 C6         -1.9900   -1.8425   -2.7214 C.2       1 <0>        -0.1337
      9 C7         -1.0370   -1.6139   -3.8662 C.3       1 <0>        -0.0858
     10 C8          0.3652   -1.0688   -3.5250 C.3       1 <0>        -0.0841
     11 C9          0.9133   -0.5556   -4.8798 C.3       1 <0>        -0.1290
     12 C10        -0.3426    0.0600   -5.5454 C.3       1 <0>        -0.0792
     13 C11        -1.4870   -0.8963   -5.1508 C.3       1 <0>        -0.0990
     14 C12        -1.2224   -2.4032   -5.1638 C.3       1 <0>        -0.1304
     15 C13        -2.8949   -0.3827   -5.3094 C.ar      1 <0>        -0.0319
     16 C14        -3.3771    0.5937   -4.4576 C.ar      1 <0>        -0.1071
     17 C15        -4.6679    1.0565   -4.6071 C.ar      1 <0>        -0.1168
     18 C16        -5.4877    0.5506   -5.6080 C.ar      1 <0>        -0.0655
     19 C17        -5.0059   -0.4180   -6.4593 C.ar      1 <0>        -0.0621
     20 C18        -3.7050   -0.8812   -6.3083 C.ar      1 <0>        -0.1085
     21 C19        -5.8325   -0.9999   -7.5760 C.3       1 <0>        -0.0215
     22 C20        -7.3164   -0.7186   -7.3489 C.3       1 <0>        -0.1127
     23 C21        -7.4890    0.7806   -7.0781 C.3       1 <0>        -0.1098
     24 C22        -6.8884    1.0952   -5.7095 C.3       1 <0>        -0.0226
     25 C23        -7.7561    0.4619   -4.6200 C.3       1 <0>        -0.1409
     26 C24        -6.8559    2.6117   -5.5093 C.3       1 <0>        -0.1407
     27 C25        -5.3981   -0.3754   -8.9035 C.3       1 <0>        -0.1371
     28 C26        -5.6089   -2.5124   -7.6339 C.3       1 <0>        -0.1430
     29 H1         -3.3116   -1.7753    0.3526 H         1 <0>         0.0606
     30 H2         -3.9172   -1.3310   -1.2611 H         1 <0>         0.0293
     31 H3         -4.8452   -2.4564   -0.2411 H         1 <0>         0.0883
     32 H4         -2.8367   -5.3936   -1.1422 H         1 <0>         0.0948
     33 H5         -1.6348   -3.9071   -2.6700 H         1 <0>         0.1059
     34 H6         -2.5264   -1.0099   -2.2909 H         1 <0>         0.1173
     35 H7          0.2925   -0.2507   -2.8084 H         1 <0>         0.0736
     36 H8          0.9991   -1.8645   -3.1339 H         1 <0>         0.0685
     37 H9          1.6793    0.2040   -4.7238 H         1 <0>         0.0696
     38 H10         1.3017   -1.3806   -5.4768 H         1 <0>         0.0679
     39 H11        -0.5296    1.0603   -5.1551 H         1 <0>         0.0717
     40 H12        -0.2252    0.0879   -6.6287 H         1 <0>         0.0649
     41 H13        -0.3238   -2.7513   -5.6731 H         1 <0>         0.0929
     42 H14        -2.0862   -3.0646   -5.2307 H         1 <0>         0.0999
     43 H15        -2.7455    0.9925   -3.6776 H         1 <0>         0.1171
     44 H16        -5.0444    1.8182   -3.9404 H         1 <0>         0.1195
     45 H17        -3.3264   -1.6414   -6.9755 H         1 <0>         0.1184
     46 H18        -7.8832   -0.9989   -8.2367 H         1 <0>         0.0649
     47 H19        -7.6711   -1.2898   -6.4909 H         1 <0>         0.0702
     48 H20        -6.9714    1.3544   -7.8468 H         1 <0>         0.0667
     49 H21        -8.5490    1.0345   -7.0810 H         1 <0>         0.0649
     50 H22        -7.3415    0.7006   -3.6407 H         1 <0>         0.0579
     51 H23        -8.7709    0.8537   -4.6902 H         1 <0>         0.0561
     52 H24        -7.7743   -0.6198   -4.7530 H         1 <0>         0.0594
     53 H25        -6.2307    3.0663   -6.2778 H         1 <0>         0.0543
     54 H26        -7.8680    3.0096   -5.5821 H         1 <0>         0.0559
     55 H27        -6.4457    2.8396   -4.5255 H         1 <0>         0.0590
     56 H28        -4.3441   -0.5909   -9.0787 H         1 <0>         0.0547
     57 H29        -5.9942   -0.7942   -9.7143 H         1 <0>         0.0558
     58 H30        -5.5465    0.7036   -8.8632 H         1 <0>         0.0566
     59 H31        -5.9079   -2.9604   -6.6863 H         1 <0>         0.0585
     60 H32        -6.2056   -2.9373   -8.4410 H         1 <0>         0.0559
     61 H33        -4.5538   -2.7170   -7.8155 H         1 <0>         0.0580
@<TRIPOS>BOND
     1    1    2 1
     2    1   29 1
     3    1   30 1
     4    1   31 1
     5    2    3 2
     6    2    7 1
     7    3    4 1
     8    3   32 1
     9    4    5 2
    10    4    6 1
    11    7    8 2
    12    7   33 1
    13    8    9 1
    14    8   34 1
    15    9   13 1
    16    9   14 1
    17    9   10 1
    18   10   11 1
    19   10   35 1
    20   10   36 1
    21   11   12 1
    22   11   37 1
    23   11   38 1
    24   12   13 1
    25   12   39 1
    26   12   40 1
    27   13   14 1
    28   13   15 1
    29   14   41 1
    30   14   42 1
    31   15   20 ar
    32   15   16 ar
    33   16   17 ar
    34   16   43 1
    35   17   18 ar
    36   17   44 1
    37   18   24 1
    38   18   19 ar
    39   19   20 ar
    40   19   21 1
    41   20   45 1
    42   21   22 1
    43   21   27 1
    44   21   28 1
    45   22   23 1
    46   22   46 1
    47   22   47 1
    48   23   24 1
    49   23   48 1
    50   23   49 1
    51   24   25 1
    52   24   26 1
    53   25   50 1
    54   25   51 1
    55   25   52 1
    56   26   53 1
    57   26   54 1
    58   26   55 1
    59   27   56 1
    60   27   57 1
    61   27   58 1
    62   28   59 1
    63   28   60 1
    64   28   61 1
@<TRIPOS>MOLECULE
CHEMBL417520
   59    61     0     0     0
SMALL
USER_CHARGES

@<TRIPOS>ATOM
      1 C1         -0.2896    1.6890   -0.5097 C.3       1 <0>        -0.1511
      2 C2         -0.5068    0.1763   -0.4369 C.3       1 <0>         0.0651
      3 O1          0.0029   -0.3189    0.8029 O.3       1 <0>        -0.3203
      4 C3         -0.1951   -1.6364    1.0689 C.ar      1 <0>         0.1148
      5 C4         -1.2977   -2.0412    1.8286 C.ar      1 <0>        -0.0601
      6 C5         -1.4920   -3.3944    2.0961 C.ar      1 <0>        -0.0878
      7 C6         -0.5977   -4.3277    1.6114 C.ar      1 <0>        -0.0803
      8 C7          0.4920   -3.9241    0.8608 C.ar      1 <0>        -0.0977
      9 C8          0.6911   -2.5842    0.5842 C.ar      1 <0>        -0.0924
     10 C9          1.8771   -2.1538   -0.2400 C.3       1 <0>        -0.0574
     11 C10         3.1676   -2.5893    0.4571 C.3       1 <0>        -0.1417
     12 C11         1.8001   -2.8039   -1.6229 C.3       1 <0>        -0.1423
     13 C12        -0.8090   -5.7913    1.9014 C.3       1 <0>        -0.0535
     14 C13        -0.7987   -6.0181    3.4145 C.3       1 <0>        -0.1466
     15 C14        -2.1562   -6.2355    1.3283 C.3       1 <0>        -0.1443
     16 C15        -2.2546   -1.0348    2.3470 C.ar      1 <0>         0.0034
     17 C16        -3.5558   -0.9808    1.8532 C.ar      1 <0>        -0.1017
     18 C17        -4.4341   -0.0309    2.3529 C.ar      1 <0>        -0.1245
     19 C18        -4.0607    0.8533    3.3149 C.ar      1 <0>        -0.0798
     20 C19        -2.7457    0.8399    3.8509 C.ar      1 <0>        -0.0686
     21 C20        -1.8651   -0.1393    3.3344 C.ar      1 <0>        -0.1025
     22 S1         -0.3588    0.1415    4.2300 S.3       1 <0>         0.0541
     23 C21        -0.9110    1.5018    5.2445 C.2       1 <0>        -0.0400
     24 C22        -2.2029    1.6773    4.8403 C.2       1 <0>        -0.1663
     25 C23        -0.1834    2.2291    6.2201 C.2       1 <0>        -0.0699
     26 C24        -0.5522    2.1703    7.5253 C.2       1 <0>        -0.1417
     27 C25         0.0676    3.0131    8.4721 C.2       1 <0>         0.5003
     28 O2          0.8671    3.8657    8.1032 O.co2     1 <0>        -0.6789
     29 O3         -0.1936    2.8926    9.6636 O.co2     1 <0>        -0.6979
     30 C26         0.9992    3.0675    5.8082 C.3       1 <0>        -0.0859
     31 H1          0.7763    1.9067   -0.4422 H         1 <0>         0.0650
     32 H2         -0.6784    2.0668   -1.4554 H         1 <0>         0.0719
     33 H3         -0.8120    2.1713    0.3165 H         1 <0>         0.0660
     34 H4         -1.5727   -0.0414   -0.5044 H         1 <0>         0.0496
     35 H5          0.0156   -0.3060   -1.2631 H         1 <0>         0.0503
     36 H6         -2.3413   -3.7131    2.6824 H         1 <0>         0.1262
     37 H7          1.1881   -4.6595    0.4853 H         1 <0>         0.1237
     38 H8          1.8704   -1.0692   -0.3475 H         1 <0>         0.0850
     39 H9          3.1742   -3.6739    0.5647 H         1 <0>         0.0546
     40 H10         4.0254   -2.2780   -0.1390 H         1 <0>         0.0574
     41 H11         3.2224   -2.1261    1.4423 H         1 <0>         0.0592
     42 H12         0.8807   -2.4937   -2.1195 H         1 <0>         0.0520
     43 H13         2.6579   -2.4926   -2.2190 H         1 <0>         0.0580
     44 H14         1.8067   -3.8886   -1.5153 H         1 <0>         0.0561
     45 H15        -0.0093   -6.3719    1.4415 H         1 <0>         0.0767
     46 H16         0.1611   -5.7017    3.8228 H         1 <0>         0.0577
     47 H17        -1.5984   -5.4375    3.8743 H         1 <0>         0.0579
     48 H18        -0.9515   -7.0768    3.6242 H         1 <0>         0.0575
     49 H19        -2.1636   -6.0739    0.2503 H         1 <0>         0.0550
     50 H20        -2.3090   -7.2942    1.5380 H         1 <0>         0.0573
     51 H21        -2.9559   -5.6549    1.7881 H         1 <0>         0.0573
     52 H22        -3.8776   -1.6719    1.0882 H         1 <0>         0.1265
     53 H23        -5.4419    0.0075    1.9667 H         1 <0>         0.1229
     54 H24        -4.7751    1.5776    3.6773 H         1 <0>         0.1221
     55 H25        -2.8106    2.4488    5.2897 H         1 <0>         0.1346
     56 H26        -1.3199    1.4784    7.8390 H         1 <0>         0.1004
     57 H27         0.6790    4.0986    5.6585 H         1 <0>         0.0668
     58 H28         1.7588    3.0326    6.5891 H         1 <0>         0.0977
     59 H29         1.4150    2.6776    4.8791 H         1 <0>         0.0304
@<TRIPOS>BOND
     1    1    2 1
     2    1   31 1
     3    1   32 1
     4    1   33 1
     5    2    3 1
     6    2   34 1
     7    2   35 1
     8    3    4 1
     9    4    9 ar
    10    4    5 ar
    11    5    6 ar
    12    5   16 1
    13    6    7 ar
    14    6   36 1
    15    7    8 ar
    16    7   13 1
    17    8    9 ar
    18    8   37 1
    19    9   10 1
    20   10   11 1
    21   10   12 1
    22   10   38 1
    23   11   39 1
    24   11   40 1
    25   11   41 1
    26   12   42 1
    27   12   43 1
    28   12   44 1
    29   13   14 1
    30   13   15 1
    31   13   45 1
    32   14   46 1
    33   14   47 1
    34   14   48 1
    35   15   49 1
    36   15   50 1
    37   15   51 1
    38   16   21 ar
    39   16   17 ar
    40   17   18 ar
    41   17   52 1
    42   18   19 ar
    43   18   53 1
    44   19   20 ar
    45   19   54 1
    46   20   24 1
    47   20   21 ar
    48   21   22 1
    49   22   23 1
    50   23   24 2
    51   23   25 1
    52   24   55 1
    53   25   26 2
    54   25   30 1
    55   26   27 1
    56   26   56 1
    57   27   28 2
    58   27   29 1
    59   30   57 1
    60   30   58 1
    61   30   59 1
@<TRIPOS>MOLECULE
CHEMBL111983
   50    52     0     0     0
SMALL
USER_CHARGES

@<TRIPOS>ATOM
      1 C1         -0.0184    1.5028    0.0103 C.3       1 <0>        -0.1137
      2 C2          0.0021   -0.0041    0.0020 C.ar      1 <0>        -0.0705
      3 C3          0.0058   -0.6899   -1.1924 C.ar      1 <0>        -0.1212
      4 C4          0.0261   -2.0796   -1.2131 C.ar      1 <0>        -0.0598
      5 C5          0.0463   -2.7837   -0.0284 C.ar      1 <0>        -0.0655
      6 C6          0.0390   -2.1016    1.1788 C.ar      1 <0>        -0.0945
      7 C7          0.0231   -0.7110    1.2027 C.ar      1 <0>        -0.0468
      8 C8          0.0227    0.0142    2.4970 C.2       1 <0>         0.0090
      9 C9          1.1397    0.6219    2.9260 C.2       1 <0>        -0.1571
     10 C10        -1.2063    0.0673    3.3131 C.2       1 <0>        -0.1656
     11 C11        -1.9858    1.1669    3.6444 C.2       1 <0>        -0.1351
     12 C12        -3.0918    0.9779    4.4201 C.2       1 <0>        -0.1564
     13 C13        -3.3943   -0.3102    4.8482 C.2       1 <0>        -0.1473
     14 S1         -2.0750   -1.2674    4.1199 S.3       1 <0>         0.0862
     15 C14        -4.4745   -0.7504    5.6513 C.2       1 <0>         0.5466
     16 O1         -5.2990    0.0562    6.0649 O.co2     1 <0>        -0.6713
     17 O2         -4.5847   -1.9379    5.9326 O.co2     1 <0>        -0.6795
     18 C15         0.0853   -4.2890    0.0192 C.3       1 <0>        -0.0218
     19 C16        -0.3395   -4.8806   -1.3231 C.3       1 <0>        -0.1116
     20 C17         0.4819   -4.2088   -2.4297 C.3       1 <0>        -0.1102
     21 C18         0.0211   -2.7584   -2.5583 C.3       1 <0>        -0.0224
     22 C19        -1.3965   -2.7284   -3.1333 C.3       1 <0>        -0.1397
     23 C20         0.9639   -2.0115   -3.5039 C.3       1 <0>        -0.1403
     24 C21         1.5086   -4.7467    0.3443 C.3       1 <0>        -0.1380
     25 C22        -0.8646   -4.7838    1.1118 C.3       1 <0>        -0.1457
     26 H1          1.0042    1.8801    0.0026 H         1 <0>         0.0677
     27 H2         -0.5455    1.8639   -0.8728 H         1 <0>         0.0625
     28 H3         -0.5286    1.8543    0.9071 H         1 <0>         0.0705
     29 H4         -0.0076   -0.1420   -2.1229 H         1 <0>         0.1205
     30 H5          0.0500   -2.6538    2.1069 H         1 <0>         0.1233
     31 H6          1.1395    1.1498    3.8682 H         1 <0>         0.1078
     32 H7          2.0389    0.5831    2.3290 H         1 <0>         0.1064
     33 H8         -1.7213    2.1539    3.2948 H         1 <0>         0.1228
     34 H9         -3.7198    1.8120    4.6965 H         1 <0>         0.1346
     35 H10        -0.1517   -5.9543   -1.3270 H         1 <0>         0.0661
     36 H11        -1.4005   -4.6925   -1.4878 H         1 <0>         0.0694
     37 H12         1.5400   -4.2361   -2.1695 H         1 <0>         0.0679
     38 H13         0.3218   -4.7299   -3.3736 H         1 <0>         0.0648
     39 H14        -1.7215   -1.6940   -3.2449 H         1 <0>         0.0555
     40 H15        -1.4042   -3.2188   -4.1067 H         1 <0>         0.0562
     41 H16        -2.0736   -3.2512   -2.4578 H         1 <0>         0.0597
     42 H17         1.9736   -2.0219   -3.0933 H         1 <0>         0.0554
     43 H18         0.9630   -2.4997   -4.4784 H         1 <0>         0.0559
     44 H19         0.6269   -0.9807   -3.6136 H         1 <0>         0.0579
     45 H20         1.8082   -4.3427    1.3114 H         1 <0>         0.0562
     46 H21         1.5409   -5.8356    0.3797 H         1 <0>         0.0571
     47 H22         2.1906   -4.3878   -0.4265 H         1 <0>         0.0561
     48 H23        -1.8786   -4.4515    0.8895 H         1 <0>         0.0592
     49 H24        -0.8392   -5.8729    1.1494 H         1 <0>         0.0575
     50 H25        -0.5527   -4.3796    2.0748 H         1 <0>         0.0615
@<TRIPOS>BOND
     1    1    2 1
     2    1   26 1
     3    1   27 1
     4    1   28 1
     5    2    7 ar
     6    2    3 ar
     7    3    4 ar
     8    3   29 1
     9    4   21 1
    10    4    5 ar
    11    5    6 ar
    12    5   18 1
    13    6    7 ar
    14    6   30 1
    15    7    8 1
    16    8    9 2
    17    8   10 1
    18    9   31 1
    19    9   32 1
    20   10   14 1
    21   10   11 2
    22   11   12 1
    23   11   33 1
    24   12   13 2
    25   12   34 1
    26   13   14 1
    27   13   15 1
    28   15   16 2
    29   15   17 1
    30   18   19 1
    31   18   24 1
    32   18   25 1
    33   19   20 1
    34   19   35 1
    35   19   36 1
    36   20   21 1
    37   20   37 1
    38   20   38 1
    39   21   22 1
    40   21   23 1
    41   22   39 1
    42   22   40 1
    43   22   41 1
    44   23   42 1
    45   23   43 1
    46   23   44 1
    47   24   45 1
    48   24   46 1
    49   24   47 1
    50   25   48 1
    51   25   49 1
    52   25   50 1
@<TRIPOS>MOLECULE
CHEMBL563805
   72    77     0     0     0
SMALL
USER_CHARGES

@<TRIPOS>ATOM
      1 C1         -0.0184    1.5028    0.0103 C.3       1 <0>        -0.1265
      2 C2          0.0021   -0.0041    0.0020 C.ar      1 <0>        -0.0223
      3 C3          0.0057   -0.6878   -1.1956 C.ar      1 <0>        -0.1902
      4 C4          0.0240   -2.0759   -1.2041 C.ar      1 <0>         0.1415
      5 C5          0.0392   -2.7804   -0.0074 C.ar      1 <0>        -0.1073
      6 C6          0.0361   -2.1028    1.1932 C.ar      1 <0>        -0.0650
      7 C7          0.0231   -0.7083    1.2051 C.ar      1 <0>        -0.0756
      8 C8          0.0254    0.0236    2.4944 C.ar      1 <0>        -0.0337
      9 C9          1.1426   -0.0613    3.3411 C.ar      1 <0>        -0.1126
     10 C10         1.1694    0.6000    4.5266 C.ar      1 <0>        -0.0880
     11 C11         0.0679    1.3834    4.9213 C.ar      1 <0>        -0.0494
     12 C12         0.0762    2.0741    6.1412 C.ar      1 <0>        -0.0783
     13 C13        -1.0245    2.8378    6.5011 C.ar      1 <0>        -0.1231
     14 C14        -2.1441    2.9220    5.6514 C.ar      1 <0>        -0.0614
     15 C15        -2.1690    2.2598    4.4678 C.ar      1 <0>        -0.1368
     16 C16        -1.0667    1.4768    4.0743 C.ar      1 <0>        -0.0430
     17 C17        -1.0715    0.7895    2.8507 C.ar      1 <0>        -0.0166
     18 Cl1        -2.4452    0.8942    1.7944 Cl        1 <0>        -0.0648
     19 C18        -1.0221    3.5661    7.7825 C.2       1 <0>         0.5185
     20 O1         -0.0520    3.4958    8.5242 O.co2     1 <0>        -0.6838
     21 O2         -1.9903    4.2408    8.1043 O.co2     1 <0>        -0.6838
     22 C19         0.0586   -4.2872   -0.0212 C.3       1 <0>         0.0059
     23 C20        -1.1878   -4.8067   -0.7408 C.3       1 <0>        -0.0989
     24 C21        -1.1681   -6.3365   -0.7548 C.3       1 <0>        -0.0845
     25 C22        -1.1541   -6.8596    0.6829 C.3       1 <0>        -0.1082
     26 C23         0.0922   -6.3401    1.4025 C.3       1 <0>        -0.0850
     27 C24         0.0726   -4.8103    1.4165 C.3       1 <0>        -0.1068
     28 C25         1.3442   -6.8274    0.6703 C.3       1 <0>        -0.1078
     29 C26         1.3301   -6.3043   -0.7675 C.3       1 <0>        -0.0846
     30 C27         0.0838   -6.8238   -1.4870 C.3       1 <0>        -0.1044
     31 C28         1.3105   -4.7745   -0.7534 C.3       1 <0>        -0.0965
     32 O3          0.0267   -2.7466   -2.3856 O.3       1 <0>        -0.3206
     33 C29         0.0100   -1.9597   -3.5783 C.3       1 <0>         0.2086
     34 O4          1.3029   -1.3892   -3.7907 O.3       1 <0>        -0.3810
     35 C30         2.2772   -2.3190   -4.2682 C.3       1 <0>         0.0627
     36 C31         3.6156   -1.6025   -4.4587 C.3       1 <0>         0.0624
     37 O5          4.1042   -1.1609   -3.1905 O.3       1 <0>        -0.3786
     38 C32         5.3563   -0.4755   -3.2567 C.3       1 <0>         0.0312
     39 H1          1.0042    1.8801    0.0026 H         1 <0>         0.0697
     40 H2         -0.5455    1.8639   -0.8728 H         1 <0>         0.0632
     41 H3         -0.5286    1.8543    0.9071 H         1 <0>         0.0787
     42 H4         -0.0060   -0.1427   -2.1279 H         1 <0>         0.1293
     43 H5          0.0479   -2.6513    2.1235 H         1 <0>         0.1320
     44 H6          1.9912   -0.6604    3.0456 H         1 <0>         0.1267
     45 H7          2.0356    0.5247    5.1673 H         1 <0>         0.1314
     46 H8          0.9329    2.0118    6.7959 H         1 <0>         0.1370
     47 H9         -2.9934    3.5207    5.9458 H         1 <0>         0.1317
     48 H10        -3.0350    2.3331    3.8266 H         1 <0>         0.1253
     49 H11        -2.0797   -4.4596   -0.2191 H         1 <0>         0.0576
     50 H12        -1.1978   -4.4341   -1.7650 H         1 <0>         0.0740
     51 H13        -2.0560   -6.7066   -1.2674 H         1 <0>         0.0655
     52 H14        -2.0460   -6.5125    1.2046 H         1 <0>         0.0608
     53 H15        -1.1401   -7.9495    0.6729 H         1 <0>         0.0583
     54 H16         0.1022   -6.7128    2.4268 H         1 <0>         0.0684
     55 H17         0.9605   -4.4402    1.9291 H         1 <0>         0.0649
     56 H18        -0.8193   -4.4632    1.9382 H         1 <0>         0.0652
     57 H19         2.2321   -6.4573    1.1829 H         1 <0>         0.0605
     58 H20         1.3582   -7.9173    0.6603 H         1 <0>         0.0582
     59 H21         2.2220   -6.6515   -1.2891 H         1 <0>         0.0649
     60 H22         0.0978   -7.9137   -1.4970 H         1 <0>         0.0567
     61 H23         0.0738   -6.4511   -2.5113 H         1 <0>         0.0593
     62 H24         1.3005   -4.4019   -1.7777 H         1 <0>         0.0732
     63 H25         2.1984   -4.4044   -0.2408 H         1 <0>         0.0572
     64 H26        -0.2521   -2.5916   -4.4269 H         1 <0>         0.1006
     65 H27        -0.7267   -1.1627   -3.4775 H         1 <0>         0.1009
     66 H28         2.3963   -3.1247   -3.5438 H         1 <0>         0.0662
     67 H29         1.9479   -2.7330   -5.2212 H         1 <0>         0.0651
     68 H30         4.3346   -2.2887   -4.9062 H         1 <0>         0.0628
     69 H31         3.4774   -0.7427   -5.1142 H         1 <0>         0.0563
     70 H32         5.6584   -0.1731   -2.2540 H         1 <0>         0.0873
     71 H33         6.1115   -1.1383   -3.6792 H         1 <0>         0.0390
     72 H34         5.2542    0.4077   -3.8873 H         1 <0>         0.0408
@<TRIPOS>BOND
     1    1    2 1
     2    1   39 1
     3    1   40 1
     4    1   41 1
     5    2    7 ar
     6    2    3 ar
     7    3    4 ar
     8    3   42 1
     9    4    5 ar
    10    4   32 1
    11    5    6 ar
    12    5   22 1
    13    6    7 ar
    14    6   43 1
    15    7    8 1
    16    8   17 ar
    17    8    9 ar
    18    9   10 ar
    19    9   44 1
    20   10   11 ar
    21   10   45 1
    22   11   16 ar
    23   11   12 ar
    24   12   13 ar
    25   12   46 1
    26   13   14 ar
    27   13   19 1
    28   14   15 ar
    29   14   47 1
    30   15   16 ar
    31   15   48 1
    32   16   17 ar
    33   17   18 1
    34   19   20 2
    35   19   21 1
    36   22   27 1
    37   22   31 1
    38   22   23 1
    39   23   24 1
    40   23   49 1
    41   23   50 1
    42   24   30 1
    43   24   25 1
    44   24   51 1
    45   25   26 1
    46   25   52 1
    47   25   53 1
    48   26   27 1
    49   26   28 1
    50   26   54 1
    51   27   55 1
    52   27   56 1
    53   28   29 1
    54   28   57 1
    55   28   58 1
    56   29   30 1
    57   29   31 1
    58   29   59 1
    59   30   60 1
    60   30   61 1
    61   31   62 1
    62   31   63 1
    63   32   33 1
    64   33   34 1
    65   33   64 1
    66   33   65 1
    67   34   35 1
    68   35   36 1
    69   35   66 1
    70   35   67 1
    71   36   37 1
    72   36   68 1
    73   36   69 1
    74   37   38 1
    75   38   70 1
    76   38   71 1
    77   38   72 1
@<TRIPOS>MOLECULE
CHEMBL337859
   58    62     0     0     0
SMALL
USER_CHARGES

@<TRIPOS>ATOM
      1 C1         -0.4494    0.6025    0.1162 C.3       1 <0>        -0.1403
      2 C2         -0.1776   -0.8996    0.2209 C.3       1 <0>        -0.0242
      3 C3         -1.5057   -1.6452    0.3332 C.3       1 <0>        -0.1121
      4 C4         -2.1281   -1.3186    1.6961 C.3       1 <0>        -0.1117
      5 C5         -1.2916   -1.9922    2.7816 C.3       1 <0>        -0.0231
      6 C6          0.1687   -1.6657    2.6073 C.ar      1 <0>        -0.0470
      7 C7          0.6827   -1.1661    1.4294 C.ar      1 <0>        -0.0473
      8 C8          2.0375   -0.8884    1.3259 C.ar      1 <0>        -0.0732
      9 C9          2.8973   -1.1107    2.4019 C.ar      1 <0>        -0.0827
     10 C10         2.3648   -1.6196    3.5937 C.ar      1 <0>        -0.0982
     11 C11         1.0132   -1.8874    3.6896 C.ar      1 <0>        -0.0773
     12 S1          3.4336   -1.9253    4.9621 S.3       1 <0>        -0.0302
     13 C12         4.1418   -0.3439    5.2894 C.ar      1 <0>        -0.1647
     14 C13         3.9575    0.2456    6.5282 C.ar      1 <0>        -0.0581
     15 C14         4.5062    1.4880    6.7962 C.ar      1 <0>        -0.1399
     16 C15         5.2393    2.1452    5.8246 C.ar      1 <0>        -0.0855
     17 C16         5.4314    1.5696    4.5862 C.ar      1 <0>        -0.1174
     18 C17         4.8873    0.3097    4.2995 C.ar      1 <0>         0.1664
     19 N1          5.1085   -0.2330    3.0823 N.2       1 <0>        -0.5172
     20 C18         4.3263   -0.8106    2.2675 C.2       1 <0>         0.3411
     21 C19         4.9465   -1.2454    0.9977 C.ar      1 <0>        -0.1009
     22 C20         6.1041   -0.6150    0.5341 C.ar      1 <0>        -0.0785
     23 C21         6.6815   -1.0190   -0.6481 C.ar      1 <0>        -0.0981
     24 C22         6.1098   -2.0609   -1.3849 C.ar      1 <0>        -0.1044
     25 C23         4.9516   -2.6916   -0.9203 C.ar      1 <0>        -0.0941
     26 C24         4.3780   -2.2903    0.2647 C.ar      1 <0>        -0.0991
     27 C25         6.7280   -2.4940   -2.6523 C.2       1 <0>         0.5167
     28 O1          7.7408   -1.9419   -3.0588 O.co2     1 <0>        -0.6835
     29 O2          6.2278   -3.4052   -3.2967 O.co2     1 <0>        -0.6838
     30 C26        -1.7574   -1.5018    4.1540 C.3       1 <0>        -0.1431
     31 C27        -1.4827   -3.5079    2.6974 C.3       1 <0>        -0.1412
     32 C28         0.5586   -1.3679   -1.0359 C.3       1 <0>        -0.1476
     33 H1          0.4956    1.1366    0.0169 H         1 <0>         0.0572
     34 H2         -1.0715    0.7992   -0.7569 H         1 <0>         0.0617
     35 H3         -0.9658    0.9417    1.0142 H         1 <0>         0.0570
     36 H4         -2.1763   -1.3231   -0.4635 H         1 <0>         0.0703
     37 H5         -1.3320   -2.7185    0.2564 H         1 <0>         0.0717
     38 H6         -2.1291   -0.2395    1.8501 H         1 <0>         0.0694
     39 H7         -3.1500   -1.6960    1.7329 H         1 <0>         0.0690
     40 H8          2.4321   -0.4954    0.4006 H         1 <0>         0.1387
     41 H9          0.6083   -2.2723    4.6140 H         1 <0>         0.1354
     42 H10         3.3844   -0.2653    7.2878 H         1 <0>         0.1316
     43 H11         4.3615    1.9445    7.7642 H         1 <0>         0.1288
     44 H12         5.6636    3.1153    6.0371 H         1 <0>         0.1300
     45 H13         6.0043    2.0915    3.8339 H         1 <0>         0.1331
     46 H14         6.5456    0.1896    1.1033 H         1 <0>         0.1247
     47 H15         7.5759   -0.5313   -1.0067 H         1 <0>         0.1308
     48 H16         4.5094   -3.4961   -1.4892 H         1 <0>         0.1308
     49 H17         3.4859   -2.7804    0.6259 H         1 <0>         0.1179
     50 H18        -2.8085   -1.7550    4.2927 H         1 <0>         0.0602
     51 H19        -1.1626   -1.9805    4.9320 H         1 <0>         0.0595
     52 H20        -1.6330   -0.4207    4.2150 H         1 <0>         0.0565
     53 H21        -1.1619   -3.8606    1.7172 H         1 <0>         0.0616
     54 H22        -0.8870   -3.9927    3.4709 H         1 <0>         0.0569
     55 H23        -2.5353   -3.7501    2.8441 H         1 <0>         0.0602
     56 H24         1.5031   -0.8312   -1.1250 H         1 <0>         0.0639
     57 H25         0.7540   -2.4379   -0.9650 H         1 <0>         0.0614
     58 H26        -0.0569   -1.1684   -1.9131 H         1 <0>         0.0618
@<TRIPOS>BOND
     1    1    2 1
     2    1   33 1
     3    1   34 1
     4    1   35 1
     5    2    7 1
     6    2    3 1
     7    2   32 1
     8    3    4 1
     9    3   36 1
    10    3   37 1
    11    4    5 1
    12    4   38 1
    13    4   39 1
    14    5    6 1
    15    5   30 1
    16    5   31 1
    17    6   11 ar
    18    6    7 ar
    19    7    8 ar
    20    8    9 ar
    21    8   40 1
    22    9   20 1
    23    9   10 ar
    24   10   11 ar
    25   10   12 1
    26   11   41 1
    27   12   13 1
    28   13   18 ar
    29   13   14 ar
    30   14   15 ar
    31   14   42 1
    32   15   16 ar
    33   15   43 1
    34   16   17 ar
    35   16   44 1
    36   17   18 ar
    37   17   45 1
    38   18   19 1
    39   19   20 2
    40   20   21 1
    41   21   26 ar
    42   21   22 ar
    43   22   23 ar
    44   22   46 1
    45   23   24 ar
    46   23   47 1
    47   24   25 ar
    48   24   27 1
    49   25   26 ar
    50   25   48 1
    51   26   49 1
    52   27   28 2
    53   27   29 1
    54   30   50 1
    55   30   51 1
    56   30   52 1
    57   31   53 1
    58   31   54 1
    59   31   55 1
    60   32   56 1
    61   32   57 1
    62   32   58 1
@<TRIPOS>MOLECULE
CHEMBL93577
   49    51     0     0     0
SMALL
USER_CHARGES

@<TRIPOS>ATOM
      1 C1         -0.0184    1.5028    0.0103 C.3       1 <0>        -0.1307
      2 C2          0.0021   -0.0041    0.0020 C.2       1 <0>        -0.0378
      3 C3          0.0224   -0.6841    1.1653 C.2       1 <0>        -0.0724
      4 C4          0.0245    0.0412    2.4375 C.2       1 <0>         0.0819
      5 N1          0.0028    1.3569    2.6581 N.2       1 <0>        -0.4910
      6 C5          0.0078    1.8459    3.8633 C.2       1 <0>         0.0287
      7 C6          0.0367    0.9740    4.9500 C.2       1 <0>        -0.1651
      8 S1          0.0491   -0.6026    4.1053 S.3       1 <0>         0.0385
      9 C7          0.0477    1.2574    6.3378 C.2       1 <0>         0.5510
     10 O1          0.0308    2.4194    6.7259 O.co2     1 <0>        -0.6652
     11 O2          0.0741    0.3405    7.1501 O.co2     1 <0>        -0.6749
     12 C8         -0.0001   -0.7333   -1.2770 C.ar      1 <0>        -0.0464
     13 C9          1.0991   -1.5157   -1.6448 C.ar      1 <0>        -0.1072
     14 C10         1.0827   -2.1890   -2.8443 C.ar      1 <0>        -0.1179
     15 C11        -0.0150   -2.1023   -3.6947 C.ar      1 <0>        -0.0642
     16 C12        -1.1044   -1.3368   -3.3364 C.ar      1 <0>        -0.0617
     17 C13        -1.1012   -0.6545   -2.1301 C.ar      1 <0>        -0.1013
     18 C14        -2.3298   -1.2145   -4.2044 C.3       1 <0>        -0.0226
     19 C15        -2.0207   -1.6498   -5.6352 C.3       1 <0>        -0.1111
     20 C16        -1.3504   -3.0279   -5.5874 C.3       1 <0>        -0.1116
     21 C17         0.0471   -2.8633   -4.9938 C.3       1 <0>        -0.0231
     22 C18         0.6535   -4.2450   -4.7406 C.3       1 <0>        -0.1422
     23 C19         0.9291   -2.1000   -5.9840 C.3       1 <0>        -0.1390
     24 C20        -3.4406   -2.1002   -3.6365 C.3       1 <0>        -0.1402
     25 C21        -2.8003    0.2413   -4.2106 C.3       1 <0>        -0.1435
     26 H1          1.0042    1.8801    0.0026 H         1 <0>         0.0696
     27 H2         -0.5455    1.8639   -0.8728 H         1 <0>         0.0511
     28 H3         -0.5286    1.8543    0.9071 H         1 <0>         0.1136
     29 H4          0.0370   -1.7640    1.1594 H         1 <0>         0.1352
     30 H5         -0.0097    2.9144    4.0199 H         1 <0>         0.1714
     31 H6          1.9558   -1.5906   -0.9914 H         1 <0>         0.1236
     32 H7          1.9322   -2.7918   -3.1295 H         1 <0>         0.1217
     33 H8         -1.9547   -0.0547   -1.8506 H         1 <0>         0.1242
     34 H9         -2.9460   -1.7114   -6.2082 H         1 <0>         0.0660
     35 H10        -1.3474   -0.9300   -6.1006 H         1 <0>         0.0685
     36 H11        -1.9379   -3.7004   -4.9623 H         1 <0>         0.0689
     37 H12        -1.2754   -3.4349   -6.5958 H         1 <0>         0.0656
     38 H13         0.0335   -4.7888   -4.0279 H         1 <0>         0.0568
     39 H14         0.7001   -4.7987   -5.6783 H         1 <0>         0.0566
     40 H15         1.6589   -4.1318   -4.3352 H         1 <0>         0.0589
     41 H16         1.9331   -1.9978   -5.5722 H         1 <0>         0.0558
     42 H17         0.9764   -2.6476   -6.9253 H         1 <0>         0.0566
     43 H18         0.5060   -1.1110   -6.1598 H         1 <0>         0.0581
     44 H19        -3.6780   -1.7797   -2.6221 H         1 <0>         0.0575
     45 H20        -4.3292   -2.0145   -4.2620 H         1 <0>         0.0573
     46 H21        -3.1060   -3.1375   -3.6209 H         1 <0>         0.0579
     47 H22        -2.0080    0.8775   -4.6053 H         1 <0>         0.0565
     48 H23        -3.6869    0.3340   -4.8378 H         1 <0>         0.0572
     49 H24        -3.0410    0.5497   -3.1932 H         1 <0>         0.0604
@<TRIPOS>BOND
     1    1    2 1
     2    1   26 1
     3    1   27 1
     4    1   28 1
     5    2    3 2
     6    2   12 1
     7    3    4 1
     8    3   29 1
     9    4    8 1
    10    4    5 2
    11    5    6 1
    12    6    7 2
    13    6   30 1
    14    7    8 1
    15    7    9 1
    16    9   10 2
    17    9   11 1
    18   12   17 ar
    19   12   13 ar
    20   13   14 ar
    21   13   31 1
    22   14   15 ar
    23   14   32 1
    24   15   21 1
    25   15   16 ar
    26   16   17 ar
    27   16   18 1
    28   17   33 1
    29   18   19 1
    30   18   24 1
    31   18   25 1
    32   19   20 1
    33   19   34 1
    34   19   35 1
    35   20   21 1
    36   20   36 1
    37   20   37 1
    38   21   22 1
    39   21   23 1
    40   22   38 1
    41   22   39 1
    42   22   40 1
    43   23   41 1
    44   23   42 1
    45   23   43 1
    46   24   44 1
    47   24   45 1
    48   24   46 1
    49   25   47 1
    50   25   48 1
    51   25   49 1
@<TRIPOS>MOLECULE
CHEMBL111911
   59    61     0     0     0
SMALL
USER_CHARGES

@<TRIPOS>ATOM
      1 C1         -0.4717    1.3985    0.3567 C.3       1 <0>        -0.1292
      2 C2         -0.5292   -0.0928    0.5663 C.ar      1 <0>        -0.0444
      3 C3         -0.7536   -0.9342   -0.5040 C.ar      1 <0>        -0.1274
      4 C4         -0.8063   -2.3097   -0.3213 C.ar      1 <0>        -0.0523
      5 C5         -0.6294   -2.8378    0.9382 C.ar      1 <0>        -0.0791
      6 C6         -0.4072   -1.9891    2.0146 C.ar      1 <0>        -0.0869
      7 C7         -0.3516   -0.6228    1.8305 C.ar      1 <0>        -0.1146
      8 C8         -0.1032    0.2889    3.0045 C.3       1 <0>         0.3469
      9 O1         -1.1825    1.2312    3.1211 O.3       1 <0>        -0.3579
     10 C9         -2.0831    0.6444    4.0911 C.3       1 <0>         0.0140
     11 C10        -1.0922   -0.0271    5.0746 C.3       1 <0>         0.0208
     12 O2         -0.0337   -0.4852    4.2092 O.3       1 <0>        -0.3684
     13 C11         1.1931    1.0308    2.8038 C.2       1 <0>        -0.1943
     14 C12         1.1978    2.3650    2.7536 C.2       1 <0>        -0.0572
     15 C13         2.4554    3.0847    2.5590 C.2       1 <0>        -0.0987
     16 C14         2.4602    4.4390    2.5080 C.2       1 <0>        -0.1711
     17 C15         3.6392    5.1284    2.1430 C.2       1 <0>         0.4989
     18 O3          4.6384    4.5009    1.8127 O.co2     1 <0>        -0.6837
     19 O4          3.6618    6.3533    2.1570 O.co2     1 <0>        -0.7040
     20 C16         3.7464    2.3207    2.4150 C.3       1 <0>        -0.0941
     21 C17        -0.6578   -4.3196    1.2072 C.3       1 <0>        -0.0196
     22 C18        -1.3239   -5.0628    0.0512 C.3       1 <0>        -0.1103
     23 C19        -0.6609   -4.6167   -1.2573 C.3       1 <0>        -0.1113
     24 C20        -1.0626   -3.1689   -1.5317 C.3       1 <0>        -0.0230
     25 C21        -0.2482   -2.6342   -2.7115 C.3       1 <0>        -0.1427
     26 C22        -2.5510   -3.1160   -1.8820 C.3       1 <0>        -0.1379
     27 C23         0.7749   -4.8292    1.3759 C.3       1 <0>        -0.1398
     28 C24        -1.4411   -4.5836    2.4948 C.3       1 <0>        -0.1415
     29 H1          0.5666    1.7094    0.2415 H         1 <0>         0.0768
     30 H2         -1.0314    1.6610   -0.5411 H         1 <0>         0.0585
     31 H3         -0.9088    1.9036    1.2180 H         1 <0>         0.0865
     32 H4         -0.8898   -0.5195   -1.4918 H         1 <0>         0.1218
     33 H5         -0.2735   -2.4021    3.0036 H         1 <0>         0.1295
     34 H6         -2.6705    1.4131    4.5932 H         1 <0>         0.1080
     35 H7         -2.7313   -0.0967    3.6235 H         1 <0>         0.0733
     36 H8         -0.7139    0.6980    5.7952 H         1 <0>         0.0779
     37 H9         -1.5645   -0.8673    5.5836 H         1 <0>         0.0971
     38 H10         2.1183    0.4832    2.7007 H         1 <0>         0.1304
     39 H11         0.2727    2.9126    2.8568 H         1 <0>         0.1189
     40 H12         1.5634    4.9915    2.7463 H         1 <0>         0.0971
     41 H13         3.9725    2.1855    1.3574 H         1 <0>         0.0612
     42 H14         4.5534    2.8780    2.8908 H         1 <0>         0.0918
     43 H15         3.6470    1.3461    2.8928 H         1 <0>         0.0304
     44 H16        -1.1928   -6.1371    0.1814 H         1 <0>         0.0650
     45 H17        -2.3869   -4.8229    0.0245 H         1 <0>         0.0672
     46 H18         0.4227   -4.6851   -1.1617 H         1 <0>         0.0692
     47 H19        -0.9987   -5.2527   -2.0755 H         1 <0>         0.0651
     48 H20         0.8127   -2.6611   -2.4625 H         1 <0>         0.0575
     49 H21        -0.4311   -3.2536   -3.5896 H         1 <0>         0.0563
     50 H22        -0.5459   -1.6072   -2.9228 H         1 <0>         0.0594
     51 H23        -2.8372   -2.0865   -2.0975 H         1 <0>         0.0558
     52 H24        -2.7405   -3.7367   -2.7577 H         1 <0>         0.0565
     53 H25        -3.1357   -3.4870   -1.0403 H         1 <0>         0.0569
     54 H26         1.2473   -4.3150    2.2128 H         1 <0>         0.0574
     55 H27         0.7585   -5.9015    1.5708 H         1 <0>         0.0558
     56 H28         1.3396   -4.6343    0.4641 H         1 <0>         0.0579
     57 H29        -2.4600   -4.2131    2.3826 H         1 <0>         0.0540
     58 H30        -1.4639   -5.6552    2.6929 H         1 <0>         0.0558
     59 H31        -0.9573   -4.0706    3.3260 H         1 <0>         0.0599
@<TRIPOS>BOND
     1    1    2 1
     2    1   29 1
     3    1   30 1
     4    1   31 1
     5    2    7 ar
     6    2    3 ar
     7    3    4 ar
     8    3   32 1
     9    4   24 1
    10    4    5 ar
    11    5    6 ar
    12    5   21 1
    13    6    7 ar
    14    6   33 1
    15    7    8 1
    16    8   12 1
    17    8    9 1
    18    8   13 1
    19    9   10 1
    20   10   11 1
    21   10   34 1
    22   10   35 1
    23   11   12 1
    24   11   36 1
    25   11   37 1
    26   13   14 2
    27   13   38 1
    28   14   15 1
    29   14   39 1
    30   15   16 2
    31   15   20 1
    32   16   17 1
    33   16   40 1
    34   17   18 2
    35   17   19 1
    36   20   41 1
    37   20   42 1
    38   20   43 1
    39   21   22 1
    40   21   27 1
    41   21   28 1
    42   22   23 1
    43   22   44 1
    44   22   45 1
    45   23   24 1
    46   23   46 1
    47   23   47 1
    48   24   25 1
    49   24   26 1
    50   25   48 1
    51   25   49 1
    52   25   50 1
    53   26   51 1
    54   26   52 1
    55   26   53 1
    56   27   54 1
    57   27   55 1
    58   27   56 1
    59   28   57 1
    60   28   58 1
    61   28   59 1
@<TRIPOS>MOLECULE
CHEMBL340074
   61    62     0     0     0
SMALL
USER_CHARGES

@<TRIPOS>ATOM
      1 C1          0.8804    1.1747   -0.9118 C.3       1 <0>        -0.1473
      2 C2          0.8126   -0.3280   -0.6323 C.3       1 <0>        -0.0549
      3 C3          1.7693   -1.0651   -1.5717 C.3       1 <0>        -0.1440
      4 C4          1.2100   -0.5915    0.7973 C.ar      1 <0>        -0.0719
      5 C5          2.4602   -0.2197    1.2409 C.ar      1 <0>        -0.0930
      6 C6          2.8301   -0.4641    2.5688 C.ar      1 <0>        -0.0288
      7 C7          1.9193   -1.0883    3.4384 C.ar      1 <0>         0.0957
      8 C8          0.6673   -1.4543    2.9726 C.ar      1 <0>        -0.0863
      9 C9          0.3142   -1.2014    1.6604 C.ar      1 <0>        -0.1042
     10 C10        -0.3139   -2.1243    3.8997 C.3       1 <0>        -0.0590
     11 C11        -1.5777   -1.2690    4.0094 C.3       1 <0>        -0.1453
     12 C12        -0.6779   -3.5036    3.3466 C.3       1 <0>        -0.1392
     13 O1          2.2650   -1.3316    4.7280 O.3       1 <0>        -0.3123
     14 C13         1.8919   -0.3490    5.6961 C.3       1 <0>         0.0108
     15 C14         2.4666   -0.7337    7.0609 C.3       1 <0>         0.2734
     16 F1          1.9625   -1.9812    7.4443 F         1 <0>        -0.2010
     17 F2          3.8615   -0.8000    6.9775 F         1 <0>        -0.1953
     18 C15         4.1599   -0.0718    3.0494 C.2       1 <0>        -0.1028
     19 C16         4.5216    1.1903    3.3804 C.2       1 <0>        -0.0715
     20 C17         5.9631    1.2208    3.8335 C.3       1 <0>        -0.0919
     21 C18         6.3149   -0.2508    4.1459 C.3       1 <0>        -0.1193
     22 C19         5.3194   -1.0197    3.2517 C.3       1 <0>        -0.0756
     23 C20         3.6766    2.3130    3.3119 C.2       1 <0>        -0.1368
     24 C21         4.1456    3.5426    3.6707 C.2       1 <0>        -0.0760
     25 C22         3.3030    4.6619    3.6025 C.2       1 <0>        -0.0820
     26 C23         3.7725    5.8928    3.9616 C.2       1 <0>        -0.1339
     27 C24         2.8916    6.9846    4.0424 C.2       1 <0>         0.4397
     28 O2          1.5794    6.7946    3.9003 O.co2     1 <0>        -0.6908
     29 O3          3.3679    8.2108    4.2612 O.co2     1 <0>        -0.7145
     30 C25         1.8796    4.5060    3.1328 C.3       1 <0>        -0.0987
     31 H1          1.8976    1.5296   -0.7461 H         1 <0>         0.0590
     32 H2          0.5930    1.3653   -1.9458 H         1 <0>         0.0576
     33 H3          0.1988    1.6998   -0.2426 H         1 <0>         0.0589
     34 H4         -0.2046   -0.6829   -0.7980 H         1 <0>         0.0765
     35 H5          2.7865   -0.7102   -1.4060 H         1 <0>         0.0573
     36 H6          1.7211   -2.1356   -1.3726 H         1 <0>         0.0546
     37 H7          1.4819   -0.8745   -2.6057 H         1 <0>         0.0574
     38 H8          3.1537    0.2591    0.5654 H         1 <0>         0.1265
     39 H9         -0.6653   -1.4848    1.3045 H         1 <0>         0.1235
     40 H10         0.1363   -2.2357    4.8862 H         1 <0>         0.0838
     41 H11        -2.0278   -1.1577    3.0230 H         1 <0>         0.0577
     42 H12        -2.2873   -1.7537    4.6800 H         1 <0>         0.0586
     43 H13        -1.3183   -0.2864    4.4035 H         1 <0>         0.0549
     44 H14        -1.1280   -3.3922    2.3601 H         1 <0>         0.0551
     45 H15         0.2225   -4.1129    3.2684 H         1 <0>         0.0558
     46 H16        -1.3875   -3.9883    4.0171 H         1 <0>         0.0571
     47 H17         2.2846    0.6229    5.3974 H         1 <0>         0.0888
     48 H18         0.8050   -0.2973    5.7611 H         1 <0>         0.0825
     49 H19         2.1820    0.0157    7.7994 H         1 <0>         0.1262
     50 H20         6.6024    1.6024    3.0374 H         1 <0>         0.0759
     51 H21         6.0658    1.8333    4.7293 H         1 <0>         0.0727
     52 H22         7.3447   -0.4725    3.8659 H         1 <0>         0.0697
     53 H23         6.1420   -0.4772    5.1980 H         1 <0>         0.0725
     54 H24         4.9832   -1.9282    3.7514 H         1 <0>         0.0715
     55 H25         5.7823   -1.2617    2.2950 H         1 <0>         0.0700
     56 H26         2.6565    2.2013    2.9753 H         1 <0>         0.1207
     57 H27         5.1657    3.6543    4.0073 H         1 <0>         0.1129
     58 H28         4.8209    6.0272    4.1835 H         1 <0>         0.1085
     59 H29         1.2223    4.3961    3.9953 H         1 <0>         0.0639
     60 H30         1.5865    5.3876    2.5626 H         1 <0>         0.0946
     61 H31         1.8004    3.6216    2.5006 H         1 <0>         0.0319
@<TRIPOS>BOND
     1    1    2 1
     2    1   31 1
     3    1   32 1
     4    1   33 1
     5    2    3 1
     6    2    4 1
     7    2   34 1
     8    3   35 1
     9    3   36 1
    10    3   37 1
    11    4    9 ar
    12    4    5 ar
    13    5    6 ar
    14    5   38 1
    15    6    7 ar
    16    6   18 1
    17    7    8 ar
    18    7   13 1
    19    8    9 ar
    20    8   10 1
    21    9   39 1
    22   10   11 1
    23   10   12 1
    24   10   40 1
    25   11   41 1
    26   11   42 1
    27   11   43 1
    28   12   44 1
    29   12   45 1
    30   12   46 1
    31   13   14 1
    32   14   15 1
    33   14   47 1
    34   14   48 1
    35   15   16 1
    36   15   17 1
    37   15   49 1
    38   18   22 1
    39   18   19 2
    40   19   20 1
    41   19   23 1
    42   20   21 1
    43   20   50 1
    44   20   51 1
    45   21   22 1
    46   21   52 1
    47   21   53 1
    48   22   54 1
    49   22   55 1
    50   23   24 2
    51   23   56 1
    52   24   25 1
    53   24   57 1
    54   25   26 2
    55   25   30 1
    56   26   27 1
    57   26   58 1
    58   27   28 2
    59   27   29 1
    60   30   59 1
    61   30   60 1
    62   30   61 1
@<TRIPOS>MOLECULE
CHEMBL106896
   56    59     0     0     0
SMALL
USER_CHARGES

@<TRIPOS>ATOM
      1 C1          0.3256    2.3648    0.7722 C.3       1 <0>        -0.1192
      2 C2          0.1933    0.9869    0.1766 C.ar      1 <0>        -0.0700
      3 C3          0.1168    0.8287   -1.1920 C.ar      1 <0>        -0.1211
      4 C4         -0.0031   -0.4370   -1.7504 C.ar      1 <0>        -0.0631
      5 C5         -0.0423   -1.5431   -0.9311 C.ar      1 <0>        -0.0691
      6 C6          0.0313   -1.3816    0.4462 C.ar      1 <0>        -0.1025
      7 C7          0.1541   -0.1234    0.9990 C.ar      1 <0>        -0.0374
      8 C8          0.2400    0.0402    2.4946 C.3       1 <0>        -0.0386
      9 C9          1.2674   -0.8133    3.2408 C.3       1 <0>        -0.1631
     10 C10         1.5044    0.6877    3.0630 C.3       1 <0>        -0.1642
     11 C11        -1.0639    0.3292    3.1928 C.ar      1 <0>        -0.0562
     12 C12        -1.2536    1.5480    3.8203 C.ar      1 <0>        -0.1319
     13 C13        -2.4441    1.8193    4.4616 C.ar      1 <0>        -0.0852
     14 C14        -3.4600    0.8602    4.4764 C.ar      1 <0>        -0.1323
     15 C15        -3.2615   -0.3679    3.8404 C.ar      1 <0>        -0.0846
     16 C16        -2.0678   -0.6232    3.1986 C.ar      1 <0>        -0.1233
     17 C17        -4.7362    1.1428    5.1608 C.2       1 <0>         0.5189
     18 O1         -4.9067    2.2185    5.7169 O.co2     1 <0>        -0.6884
     19 O2         -5.6234    0.3013    5.1719 O.co2     1 <0>        -0.6881
     20 C18        -0.1549   -2.9460   -1.4679 C.3       1 <0>        -0.0205
     21 C19        -0.6511   -2.9303   -2.9123 C.3       1 <0>        -0.1117
     22 C20         0.2224   -1.9581   -3.7137 C.3       1 <0>        -0.1099
     23 C21        -0.0895   -0.5364   -3.2510 C.3       1 <0>        -0.0218
     24 C22        -1.5020   -0.1578   -3.7012 C.3       1 <0>        -0.1397
     25 C23         0.9157    0.4308   -3.8794 C.3       1 <0>        -0.1405
     26 C24         1.2182   -3.6187   -1.4135 C.3       1 <0>        -0.1375
     27 C25        -1.1387   -3.7388   -0.6051 C.3       1 <0>        -0.1437
     28 H1          1.3782    2.5835    0.9519 H         1 <0>         0.0661
     29 H2         -0.0855    3.1005    0.0809 H         1 <0>         0.0593
     30 H3         -0.2203    2.4071    1.7147 H         1 <0>         0.0784
     31 H4          0.1501    1.6964   -1.8341 H         1 <0>         0.1187
     32 H5         -0.0045   -2.2481    1.0898 H         1 <0>         0.1206
     33 H6          1.0003   -1.1662    4.2369 H         1 <0>         0.0971
     34 H7          1.8812   -1.4932    2.6499 H         1 <0>         0.0932
     35 H8          2.2740    0.9954    2.3552 H         1 <0>         0.0937
     36 H9          1.3932    1.3224    3.9422 H         1 <0>         0.0991
     37 H10        -0.4674    2.2884    3.8080 H         1 <0>         0.1134
     38 H11        -2.5905    2.7706    4.9515 H         1 <0>         0.1251
     39 H12        -4.0425   -1.1138    3.8479 H         1 <0>         0.1246
     40 H13        -1.9145   -1.5704    2.7028 H         1 <0>         0.1099
     41 H14        -0.5728   -3.9306   -3.3382 H         1 <0>         0.0649
     42 H15        -1.6893   -2.5993   -2.9401 H         1 <0>         0.0691
     43 H16         1.2750   -2.1791   -3.5367 H         1 <0>         0.0672
     44 H17         0.0000   -2.0554   -4.7764 H         1 <0>         0.0644
     45 H18        -1.7212    0.8634   -3.3895 H         1 <0>         0.0560
     46 H19        -1.5684   -0.2285   -4.7869 H         1 <0>         0.0557
     47 H20        -2.2225   -0.8386   -3.2479 H         1 <0>         0.0590
     48 H21         1.9228    0.1707   -3.5535 H         1 <0>         0.0549
     49 H22         0.8561    0.3618   -4.9656 H         1 <0>         0.0555
     50 H23         0.6843    1.4491   -3.5668 H         1 <0>         0.0583
     51 H24         1.5671   -3.6495   -0.3813 H         1 <0>         0.0552
     52 H25         1.1407   -4.6345   -1.8013 H         1 <0>         0.0558
     53 H26         1.9249   -3.0515   -2.0192 H         1 <0>         0.0562
     54 H27        -2.1162   -3.2574   -0.6330 H         1 <0>         0.0582
     55 H28        -1.2230   -4.7549   -0.9905 H         1 <0>         0.0559
     56 H29        -0.7778   -3.7690    0.4230 H         1 <0>         0.0594
@<TRIPOS>BOND
     1    1    2 1
     2    1   28 1
     3    1   29 1
     4    1   30 1
     5    2    7 ar
     6    2    3 ar
     7    3    4 ar
     8    3   31 1
     9    4   23 1
    10    4    5 ar
    11    5    6 ar
    12    5   20 1
    13    6    7 ar
    14    6   32 1
    15    7    8 1
    16    8   10 1
    17    8    9 1
    18    8   11 1
    19    9   10 1
    20    9   33 1
    21    9   34 1
    22   10   35 1
    23   10   36 1
    24   11   16 ar
    25   11   12 ar
    26   12   13 ar
    27   12   37 1
    28   13   14 ar
    29   13   38 1
    30   14   15 ar
    31   14   17 1
    32   15   16 ar
    33   15   39 1
    34   16   40 1
    35   17   18 2
    36   17   19 1
    37   20   21 1
    38   20   26 1
    39   20   27 1
    40   21   22 1
    41   21   41 1
    42   21   42 1
    43   22   23 1
    44   22   43 1
    45   22   44 1
    46   23   24 1
    47   23   25 1
    48   24   45 1
    49   24   46 1
    50   24   47 1
    51   25   48 1
    52   25   49 1
    53   25   50 1
    54   26   51 1
    55   26   52 1
    56   26   53 1
    57   27   54 1
    58   27   55 1
    59   27   56 1
@<TRIPOS>MOLECULE
CHEMBL290246
   65    67     0     0     0
SMALL
USER_CHARGES

@<TRIPOS>ATOM
      1 C1         -0.7836    1.2688    0.1451 C.3       1 <0>        -0.1518
      2 C2         -0.4765   -0.2240    0.2796 C.3       1 <0>        -0.1183
      3 C3          0.4180   -0.6671   -0.8799 C.3       1 <0>        -0.1198
      4 C4          0.7251   -2.1600   -0.7455 C.3       1 <0>         0.0697
      5 O1          1.5606   -2.5738   -1.8284 O.3       1 <0>        -0.3221
      6 C5          2.0059   -3.8572   -1.8084 C.ar      1 <0>         0.1164
      7 C6          3.2512   -4.1593   -1.2479 C.ar      1 <0>        -0.0569
      8 C7          3.6991   -5.4781   -1.2320 C.ar      1 <0>        -0.0889
      9 C8          2.9136   -6.4787   -1.7683 C.ar      1 <0>        -0.0808
     10 C9          1.6825   -6.1766   -2.3223 C.ar      1 <0>        -0.0982
     11 C10         1.2257   -4.8719   -2.3377 C.ar      1 <0>        -0.0921
     12 C11        -0.1198   -4.5525   -2.9367 C.3       1 <0>        -0.0570
     13 C12        -0.1361   -4.9733   -4.4076 C.3       1 <0>        -0.1419
     14 C13        -1.2095   -5.3117   -2.1770 C.3       1 <0>        -0.1418
     15 C14         3.3993   -7.9052   -1.7506 C.3       1 <0>        -0.0532
     16 C15         4.7125   -8.0066   -2.5290 C.3       1 <0>        -0.1469
     17 C16         3.6284   -8.3480   -0.3041 C.3       1 <0>        -0.1439
     18 C17         4.0910   -3.0806   -0.6738 C.ar      1 <0>        -0.0293
     19 C18         4.3224   -3.0309    0.6963 C.ar      1 <0>        -0.0938
     20 C19         5.1054   -2.0274    1.2438 C.ar      1 <0>        -0.1399
     21 C20         5.6673   -1.0625    0.4375 C.ar      1 <0>        -0.0707
     22 C21         5.4469   -1.0943   -0.9431 C.ar      1 <0>        -0.1185
     23 C22         4.6584   -2.1117   -1.5098 C.ar      1 <0>         0.0778
     24 O2          4.6185   -1.9062   -2.8408 O.3       1 <0>        -0.1747
     25 C23         5.3387   -0.8170   -3.1809 C.2       1 <0>         0.1108
     26 C24         5.8757   -0.2552   -2.0604 C.2       1 <0>        -0.2076
     27 C25         5.5023   -0.3250   -4.5002 C.2       1 <0>        -0.1292
     28 C26         6.7305   -0.3305   -5.0796 C.2       1 <0>         0.0638
     29 C27         6.9260    0.3037   -6.3287 C.2       1 <0>         0.5040
     30 O3          6.0160    0.9471   -6.8384 O.co2     1 <0>        -0.6514
     31 O4          8.0056    0.2097   -6.9013 O.co2     1 <0>        -0.6710
     32 F1          7.7655   -0.9416   -4.4629 F         1 <0>        -0.1408
     33 C28         4.3132    0.2042   -5.2599 C.3       1 <0>        -0.0744
     34 H1          0.1477    1.8348    0.1679 H         1 <0>         0.0565
     35 H2         -1.2963    1.4506   -0.7994 H         1 <0>         0.0557
     36 H3         -1.4209    1.5845    0.9712 H         1 <0>         0.0543
     37 H4          0.0363   -0.4059    1.2241 H         1 <0>         0.0622
     38 H5         -1.4078   -0.7900    0.2568 H         1 <0>         0.0615
     39 H6         -0.0947   -0.4853   -1.8244 H         1 <0>         0.0722
     40 H7          1.3493   -0.1011   -0.8572 H         1 <0>         0.0728
     41 H8          1.2379   -2.3418    0.1990 H         1 <0>         0.0500
     42 H9         -0.2061   -2.7259   -0.7682 H         1 <0>         0.0504
     43 H10         4.6600   -5.7175   -0.8010 H         1 <0>         0.1258
     44 H11         1.0734   -6.9644   -2.7404 H         1 <0>         0.1237
     45 H12        -0.3051   -3.4809   -2.8632 H         1 <0>         0.0844
     46 H13         0.0492   -6.0449   -4.4811 H         1 <0>         0.0545
     47 H14        -1.1093   -4.7423   -4.8408 H         1 <0>         0.0572
     48 H15         0.6402   -4.4324   -4.9489 H         1 <0>         0.0596
     49 H16        -1.0242   -6.3834   -2.2504 H         1 <0>         0.0560
     50 H17        -1.1978   -5.0120   -1.1291 H         1 <0>         0.0518
     51 H18        -2.1826   -5.0807   -2.6102 H         1 <0>         0.0577
     52 H19         2.6518   -8.5493   -2.2136 H         1 <0>         0.0766
     53 H20         5.0638   -9.0384   -2.5162 H         1 <0>         0.0574
     54 H21         4.5493   -7.6911   -3.5595 H         1 <0>         0.0578
     55 H22         5.4601   -7.3625   -2.0660 H         1 <0>         0.0578
     56 H23         2.6928   -8.2758    0.2505 H         1 <0>         0.0549
     57 H24         3.9797   -9.3798   -0.2912 H         1 <0>         0.0570
     58 H25         4.3759   -7.7039    0.1590 H         1 <0>         0.0572
     59 H26         3.8874   -3.7813    1.3399 H         1 <0>         0.1286
     60 H27         5.2761   -2.0016    2.3099 H         1 <0>         0.1272
     61 H28         6.2763   -0.2828    0.8705 H         1 <0>         0.1259
     62 H29         6.5002    0.6245   -2.0100 H         1 <0>         0.1570
     63 H30         4.2606    1.2868   -5.1443 H         1 <0>         0.0704
     64 H31         4.4171   -0.0439   -6.3162 H         1 <0>         0.0981
     65 H32         3.4016   -0.2476   -4.8686 H         1 <0>         0.0402
@<TRIPOS>BOND
     1    1    2 1
     2    1   34 1
     3    1   35 1
     4    1   36 1
     5    2    3 1
     6    2   37 1
     7    2   38 1
     8    3    4 1
     9    3   39 1
    10    3   40 1
    11    4    5 1
    12    4   41 1
    13    4   42 1
    14    5    6 1
    15    6   11 ar
    16    6    7 ar
    17    7    8 ar
    18    7   18 1
    19    8    9 ar
    20    8   43 1
    21    9   10 ar
    22    9   15 1
    23   10   11 ar
    24   10   44 1
    25   11   12 1
    26   12   13 1
    27   12   14 1
    28   12   45 1
    29   13   46 1
    30   13   47 1
    31   13   48 1
    32   14   49 1
    33   14   50 1
    34   14   51 1
    35   15   16 1
    36   15   17 1
    37   15   52 1
    38   16   53 1
    39   16   54 1
    40   16   55 1
    41   17   56 1
    42   17   57 1
    43   17   58 1
    44   18   23 ar
    45   18   19 ar
    46   19   20 ar
    47   19   59 1
    48   20   21 ar
    49   20   60 1
    50   21   22 ar
    51   21   61 1
    52   22   26 1
    53   22   23 ar
    54   23   24 1
    55   24   25 1
    56   25   26 2
    57   25   27 1
    58   26   62 1
    59   27   28 2
    60   27   33 1
    61   28   29 1
    62   28   32 1
    63   29   30 2
    64   29   31 1
    65   33   63 1
    66   33   64 1
    67   33   65 1
@<TRIPOS>MOLECULE
CHEMBL564563
   70    74     0     0     0
SMALL
USER_CHARGES

@<TRIPOS>ATOM
      1 C1         -0.0184    1.5028    0.0103 C.3       1 <0>        -0.1256
      2 C2          0.0021   -0.0041    0.0020 C.ar      1 <0>        -0.0228
      3 C3          0.0057   -0.6876   -1.1953 C.ar      1 <0>        -0.1902
      4 C4          0.0245   -2.0761   -1.2038 C.ar      1 <0>         0.1416
      5 C5          0.0397   -2.7810   -0.0070 C.ar      1 <0>        -0.1071
      6 C6          0.0357   -2.1039    1.1935 C.ar      1 <0>        -0.0655
      7 C7          0.0231   -0.7087    1.2056 C.ar      1 <0>        -0.0751
      8 C8          0.0259    0.0225    2.4940 C.ar      1 <0>        -0.0482
      9 C9          1.1340   -0.0588    3.3393 C.ar      1 <0>        -0.0923
     10 C10         1.1420    0.6134    4.5275 C.ar      1 <0>        -0.1104
     11 C11         0.0374    1.3882    4.9037 C.ar      1 <0>        -0.0167
     12 C12        -1.0765    1.4727    4.0589 C.ar      1 <0>        -0.1144
     13 C13        -1.0782    0.7973    2.8589 C.ar      1 <0>        -0.0187
     14 Cl1        -2.4529    0.9028    1.8040 Cl        1 <0>        -0.0693
     15 C14         0.0470    2.1105    6.1826 C.2       1 <0>        -0.1241
     16 C15        -1.0206    2.8586    6.5451 C.2       1 <0>        -0.1530
     17 C16        -1.0113    3.5543    7.7766 C.2       1 <0>         0.4987
     18 O1         -0.0366    3.4794    8.5151 O.co2     1 <0>        -0.6929
     19 O2         -1.9780    4.2316    8.1048 O.co2     1 <0>        -0.6963
     20 C17         0.0600   -4.2878   -0.0212 C.3       1 <0>         0.0057
     21 C18        -1.1857   -4.8079   -0.7414 C.3       1 <0>        -0.0989
     22 C19        -1.1650   -6.3377   -0.7558 C.3       1 <0>        -0.0845
     23 C20        -1.1512   -6.8611    0.6819 C.3       1 <0>        -0.1083
     24 C21         0.0945   -6.3410    1.4020 C.3       1 <0>        -0.0850
     25 C22         0.0739   -4.8112    1.4164 C.3       1 <0>        -0.1067
     26 C23         1.3471   -6.8272    0.6702 C.3       1 <0>        -0.1079
     27 C24         1.3332   -6.3038   -0.7675 C.3       1 <0>        -0.0847
     28 C25         0.0875   -6.8239   -1.4876 C.3       1 <0>        -0.1044
     29 C26         1.3126   -4.7740   -0.7531 C.3       1 <0>        -0.0965
     30 O3          0.0276   -2.7465   -2.3853 O.3       1 <0>        -0.3206
     31 C27         0.0109   -1.9595   -3.5779 C.3       1 <0>         0.2086
     32 O4          1.3036   -1.3885   -3.7899 O.3       1 <0>        -0.3811
     33 C28         2.2783   -2.3180   -4.2674 C.3       1 <0>         0.0627
     34 C29         3.6165   -1.6010   -4.4575 C.3       1 <0>         0.0624
     35 O5          4.1047   -1.1594   -3.1892 O.3       1 <0>        -0.3787
     36 C30         5.3567   -0.4736   -3.2550 C.3       1 <0>         0.0312
     37 H1          1.0042    1.8801    0.0026 H         1 <0>         0.0697
     38 H2         -0.5455    1.8639   -0.8728 H         1 <0>         0.0633
     39 H3         -0.5286    1.8543    0.9071 H         1 <0>         0.0780
     40 H4         -0.0064   -0.1426   -2.1276 H         1 <0>         0.1294
     41 H5          0.0467   -2.6525    2.1236 H         1 <0>         0.1319
     42 H6          1.9873   -0.6555    3.0525 H         1 <0>         0.1286
     43 H7          2.0012    0.5475    5.1785 H         1 <0>         0.1315
     44 H8         -1.9299    2.0691    4.3459 H         1 <0>         0.1383
     45 H9          0.9062    2.0446    6.8336 H         1 <0>         0.1328
     46 H10        -1.8798    2.9246    5.8941 H         1 <0>         0.1011
     47 H11        -2.0780   -4.4615   -0.2200 H         1 <0>         0.0575
     48 H12        -1.1955   -4.4350   -1.7656 H         1 <0>         0.0740
     49 H13        -2.0524   -6.7082   -1.2688 H         1 <0>         0.0656
     50 H14        -2.0435   -6.5147    1.2032 H         1 <0>         0.0608
     51 H15        -1.1364   -7.9509    0.6716 H         1 <0>         0.0584
     52 H16         0.1044   -6.7138    2.4262 H         1 <0>         0.0685
     53 H17         0.9613   -4.4406    1.9295 H         1 <0>         0.0648
     54 H18        -0.8185   -4.4647    1.9378 H         1 <0>         0.0651
     55 H19         2.2345   -6.4567    1.1832 H         1 <0>         0.0605
     56 H20         1.3618   -7.9171    0.6599 H         1 <0>         0.0583
     57 H21         2.2256   -6.6502   -1.2889 H         1 <0>         0.0650
     58 H22         0.1023   -7.9138   -1.4979 H         1 <0>         0.0568
     59 H23         0.0777   -6.4510   -2.5118 H         1 <0>         0.0593
     60 H24         1.3027   -4.4011   -1.7773 H         1 <0>         0.0732
     61 H25         2.2000   -4.4035   -0.2400 H         1 <0>         0.0571
     62 H26        -0.2508   -2.5914   -4.4266 H         1 <0>         0.1007
     63 H27        -0.7261   -1.1628   -3.4771 H         1 <0>         0.1009
     64 H28         2.3975   -3.1237   -3.5431 H         1 <0>         0.0662
     65 H29         1.9493   -2.7320   -5.2205 H         1 <0>         0.0653
     66 H30         4.3359   -2.2869   -4.9049 H         1 <0>         0.0629
     67 H31         3.4781   -0.7412   -5.1130 H         1 <0>         0.0564
     68 H32         5.6584   -0.1711   -2.2522 H         1 <0>         0.0873
     69 H33         6.1121   -1.1361   -3.6775 H         1 <0>         0.0391
     70 H34         5.2544    0.4097   -3.8855 H         1 <0>         0.0408
@<TRIPOS>BOND
     1    1    2 1
     2    1   37 1
     3    1   38 1
     4    1   39 1
     5    2    7 ar
     6    2    3 ar
     7    3    4 ar
     8    3   40 1
     9    4    5 ar
    10    4   30 1
    11    5    6 ar
    12    5   20 1
    13    6    7 ar
    14    6   41 1
    15    7    8 1
    16    8   13 ar
    17    8    9 ar
    18    9   10 ar
    19    9   42 1
    20   10   11 ar
    21   10   43 1
    22   11   12 ar
    23   11   15 1
    24   12   13 ar
    25   12   44 1
    26   13   14 1
    27   15   16 2
    28   15   45 1
    29   16   17 1
    30   16   46 1
    31   17   18 2
    32   17   19 1
    33   20   25 1
    34   20   29 1
    35   20   21 1
    36   21   22 1
    37   21   47 1
    38   21   48 1
    39   22   28 1
    40   22   23 1
    41   22   49 1
    42   23   24 1
    43   23   50 1
    44   23   51 1
    45   24   25 1
    46   24   26 1
    47   24   52 1
    48   25   53 1
    49   25   54 1
    50   26   27 1
    51   26   55 1
    52   26   56 1
    53   27   28 1
    54   27   29 1
    55   27   57 1
    56   28   58 1
    57   28   59 1
    58   29   60 1
    59   29   61 1
    60   30   31 1
    61   31   32 1
    62   31   62 1
    63   31   63 1
    64   32   33 1
    65   33   34 1
    66   33   64 1
    67   33   65 1
    68   34   35 1
    69   34   66 1
    70   34   67 1
    71   35   36 1
    72   36   68 1
    73   36   69 1
    74   36   70 1
@<TRIPOS>MOLECULE
CHEMBL331642
   55    57     0     0     0
SMALL
USER_CHARGES

@<TRIPOS>ATOM
      1 C1          1.5629   -1.4911    2.3291 C.3       1 <0>        -0.1529
      2 C2          0.7160   -1.3745    1.0602 C.3       1 <0>         0.0607
      3 O1          1.4453   -1.9027   -0.0494 O.3       1 <0>        -0.3482
      4 C3          0.8360   -1.8749   -1.2508 C.2       1 <0>         0.5109
      5 O2         -0.2838   -1.4148   -1.3536 O.2       1 <0>        -0.5016
      6 C4          1.5284   -2.4031   -2.4414 C.ar      1 <0>        -0.1275
      7 C5          2.8144   -2.9382   -2.3243 C.ar      1 <0>        -0.0437
      8 C6          3.4571   -3.4306   -3.4381 C.ar      1 <0>        -0.1374
      9 C7          2.8288   -3.3962   -4.6775 C.ar      1 <0>         0.1308
     10 C8          1.5501   -2.8649   -4.7983 C.ar      1 <0>        -0.1300
     11 C9          0.8982   -2.3752   -3.6886 C.ar      1 <0>        -0.0372
     12 O3          3.4661   -3.8822   -5.7731 O.3       1 <0>        -0.2997
     13 C10         3.4707   -5.2170   -5.9624 C.2       1 <0>         0.5159
     14 O4          2.8212   -5.9368   -5.2297 O.2       1 <0>        -0.4887
     15 C11         4.2634   -5.8031   -7.0577 C.ar      1 <0>        -0.1930
     16 C12         4.9097   -4.9725   -7.9764 C.ar      1 <0>        -0.0086
     17 C13         5.6486   -5.5114   -8.9963 C.ar      1 <0>        -0.1601
     18 C14         5.7573   -6.8921   -9.1160 C.ar      1 <0>         0.2653
     19 C15         5.1142   -7.7291   -8.2051 C.ar      1 <0>        -0.2128
     20 C16         4.3751   -7.1922   -7.1767 C.ar      1 <0>         0.0334
     21 C17         3.6848   -8.0955   -6.1875 C.3       1 <0>        -0.1266
     22 N1          6.5105   -7.4627  -10.1396 N.pl3     1 <0>        -0.6244
     23 C18         6.9368   -6.6203  -11.2648 C.3       1 <0>         0.1184
     24 C19         7.4675   -5.3010  -10.6886 C.3       1 <0>        -0.1285
     25 C20         6.3259   -4.5823   -9.9697 C.3       1 <0>        -0.0147
     26 C21         6.8849   -3.3762   -9.2124 C.3       1 <0>        -0.1427
     27 C22         5.3046   -4.0978  -11.0008 C.3       1 <0>        -0.1416
     28 C23         6.8722   -8.8816  -10.0943 C.3       1 <0>         0.0906
     29 H1          1.7975   -2.5393    2.5144 H         1 <0>         0.0676
     30 H2          2.4879   -0.9288    2.2015 H         1 <0>         0.0675
     31 H3          1.0067   -1.0882    3.1755 H         1 <0>         0.0814
     32 H4         -0.2090   -1.9368    1.1879 H         1 <0>         0.0697
     33 H5          0.4815   -0.3263    0.8750 H         1 <0>         0.0697
     34 H6          3.3034   -2.9650   -1.3617 H         1 <0>         0.1475
     35 H7          4.4509   -3.8439   -3.3486 H         1 <0>         0.1390
     36 H8          1.0656   -2.8397   -5.7632 H         1 <0>         0.1428
     37 H9         -0.0970   -1.9664   -3.7826 H         1 <0>         0.1477
     38 H10         4.8262   -3.8998   -7.8823 H         1 <0>         0.1378
     39 H11         5.2000   -8.8011   -8.3045 H         1 <0>         0.1325
     40 H12         2.6468   -8.2377   -6.4882 H         1 <0>         0.0795
     41 H13         4.1911   -9.0604   -6.1618 H         1 <0>         0.0624
     42 H14         3.7172   -7.6417   -5.1970 H         1 <0>         0.0931
     43 H15         7.7262   -7.1228  -11.8238 H         1 <0>         0.0829
     44 H16         6.0884   -6.4222  -11.9198 H         1 <0>         0.0681
     45 H17         8.2711   -5.5081   -9.9819 H         1 <0>         0.0721
     46 H18         7.8422   -4.6736  -11.4973 H         1 <0>         0.0823
     47 H19         7.6069   -3.7161   -8.4699 H         1 <0>         0.0579
     48 H20         7.3757   -2.7020   -9.9143 H         1 <0>         0.0605
     49 H21         6.0704   -2.8511   -8.7134 H         1 <0>         0.0618
     50 H22         4.4981   -3.5691  -10.4926 H         1 <0>         0.0592
     51 H23         5.7919   -3.4252  -11.7066 H         1 <0>         0.0604
     52 H24         4.8960   -4.9540  -11.5376 H         1 <0>         0.0555
     53 H25         6.0980   -9.4698  -10.5869 H         1 <0>         0.0529
     54 H26         7.8229   -9.0307  -10.6063 H         1 <0>         0.0712
     55 H27         6.9649   -9.1999   -9.0559 H         1 <0>         0.0708
@<TRIPOS>BOND
     1    1    2 1
     2    1   29 1
     3    1   30 1
     4    1   31 1
     5    2    3 1
     6    2   32 1
     7    2   33 1
     8    3    4 1
     9    4    5 2
    10    4    6 1
    11    6   11 ar
    12    6    7 ar
    13    7    8 ar
    14    7   34 1
    15    8    9 ar
    16    8   35 1
    17    9   10 ar
    18    9   12 1
    19   10   11 ar
    20   10   36 1
    21   11   37 1
    22   12   13 1
    23   13   14 2
    24   13   15 1
    25   15   20 ar
    26   15   16 ar
    27   16   17 ar
    28   16   38 1
    29   17   25 1
    30   17   18 ar
    31   18   19 ar
    32   18   22 1
    33   19   20 ar
    34   19   39 1
    35   20   21 1
    36   21   40 1
    37   21   41 1
    38   21   42 1
    39   22   23 1
    40   22   28 1
    41   23   24 1
    42   23   43 1
    43   23   44 1
    44   24   25 1
    45   24   45 1
    46   24   46 1
    47   25   26 1
    48   25   27 1
    49   26   47 1
    50   26   48 1
    51   26   49 1
    52   27   50 1
    53   27   51 1
    54   27   52 1
    55   28   53 1
    56   28   54 1
    57   28   55 1
@<TRIPOS>MOLECULE
CHEMBL38
   49    49     0     0     0
SMALL
USER_CHARGES

@<TRIPOS>ATOM
      1 C1         -2.0286   -1.1701   -2.0302 C.3       1 <0>        -0.1228
      2 C2         -0.9130   -0.9655   -1.0380 C.2       1 <0>        -0.1195
      3 C3         -1.0509   -0.0121   -0.1319 C.2       1 <0>        -0.0846
      4 C4         -0.0157    0.3046    0.9079 C.3       1 <0>        -0.0189
      5 C5          0.9697   -0.8582    1.0413 C.3       1 <0>        -0.1095
      6 C6          1.4613   -1.2436   -0.3593 C.3       1 <0>        -0.1215
      7 C7          0.2895   -1.8593   -1.1300 C.3       1 <0>        -0.0797
      8 C8         -0.7043    0.5427    2.2533 C.3       1 <0>        -0.1380
      9 C9          0.7436    1.5685    0.4993 C.3       1 <0>        -0.1378
     10 C10        -2.2434    0.7543   -0.1436 C.2       1 <0>        -0.1259
     11 C11        -3.4484    0.1381   -0.0202 C.2       1 <0>        -0.0971
     12 C12        -4.6247    0.9039    0.0582 C.2       1 <0>        -0.1171
     13 C13        -5.8350    0.2850    0.1820 C.2       1 <0>        -0.0909
     14 C14        -7.0080    1.0486    0.2602 C.2       1 <0>        -0.1590
     15 C15        -8.2286    0.4243    0.3851 C.2       1 <0>        -0.0727
     16 C16        -9.4006    1.1873    0.4632 C.2       1 <0>        -0.0846
     17 C17       -10.6211    0.5631    0.5882 C.2       1 <0>        -0.1309
     18 C18       -11.8049    1.3147    0.5138 C.2       1 <0>         0.4385
     19 O1        -11.7538    2.6103    0.2004 O.co2     1 <0>        -0.6898
     20 O2        -12.9805    0.7331    0.7567 O.co2     1 <0>        -0.7140
     21 C19        -9.3254    2.6915    0.4105 C.3       1 <0>        -0.1010
     22 C20        -4.5496    2.4081    0.0054 C.3       1 <0>        -0.1197
     23 H1         -1.7305   -1.9205   -2.7624 H         1 <0>         0.0534
     24 H2         -2.9229   -1.5082   -1.5068 H         1 <0>         0.0707
     25 H3         -2.2392   -0.2295   -2.5391 H         1 <0>         0.0657
     26 H4          1.8167   -0.5519    1.6552 H         1 <0>         0.0638
     27 H5          0.4699   -1.7107    1.5013 H         1 <0>         0.0637
     28 H6          1.8197   -0.3550   -0.8789 H         1 <0>         0.0667
     29 H7          2.2672   -1.9728   -0.2767 H         1 <0>         0.0625
     30 H8          0.0477   -2.8349   -0.7083 H         1 <0>         0.0717
     31 H9          0.5710   -1.9797   -2.1761 H         1 <0>         0.0688
     32 H10        -1.1790   -0.3801    2.5868 H         1 <0>         0.0541
     33 H11         0.0353    0.8575    2.9894 H         1 <0>         0.0532
     34 H12        -1.4600    1.3203    2.1420 H         1 <0>         0.0599
     35 H13         0.0450    2.4010    0.4154 H         1 <0>         0.0553
     36 H14         1.4959    1.8002    1.2533 H         1 <0>         0.0549
     37 H15         1.2309    1.4048   -0.4619 H         1 <0>         0.0560
     38 H16        -2.1943    1.8279   -0.2505 H         1 <0>         0.1163
     39 H17        -3.5023   -0.9399    0.0176 H         1 <0>         0.1126
     40 H18        -5.8889   -0.7930    0.2198 H         1 <0>         0.1099
     41 H19        -6.9541    2.1266    0.2224 H         1 <0>         0.1254
     42 H20        -8.2825   -0.6536    0.4229 H         1 <0>         0.1124
     43 H21       -10.6682   -0.5046    0.7433 H         1 <0>         0.1098
     44 H22        -9.4930    3.0280   -0.6126 H         1 <0>         0.0660
     45 H23       -10.0886    3.1165    1.0624 H         1 <0>         0.0952
     46 H24        -8.3402    3.0179    0.7436 H         1 <0>         0.0335
     47 H25        -4.6201    2.7393   -1.0307 H         1 <0>         0.0655
     48 H26        -5.3726    2.8334    0.5797 H         1 <0>         0.0686
     49 H27        -3.6015    2.7395    0.4291 H         1 <0>         0.0613
@<TRIPOS>BOND
     1    1    2 1
     2    1   23 1
     3    1   24 1
     4    1   25 1
     5    2    7 1
     6    2    3 2
     7    3    4 1
     8    3   10 1
     9    4    5 1
    10    4    8 1
    11    4    9 1
    12    5    6 1
    13    5   26 1
    14    5   27 1
    15    6    7 1
    16    6   28 1
    17    6   29 1
    18    7   30 1
    19    7   31 1
    20    8   32 1
    21    8   33 1
    22    8   34 1
    23    9   35 1
    24    9   36 1
    25    9   37 1
    26   10   11 2
    27   10   38 1
    28   11   12 1
    29   11   39 1
    30   12   13 2
    31   12   22 1
    32   13   14 1
    33   13   40 1
    34   14   15 2
    35   14   41 1
    36   15   16 1
    37   15   42 1
    38   16   17 2
    39   16   21 1
    40   17   18 1
    41   17   43 1
    42   18   19 2
    43   18   20 1
    44   21   44 1
    45   21   45 1
    46   21   46 1
    47   22   47 1
    48   22   48 1
    49   22   49 1
@<TRIPOS>MOLECULE
CHEMBL41146
   68    70     0     0     0
SMALL
USER_CHARGES

@<TRIPOS>ATOM
      1 C1          1.2012   -2.1690    0.3059 C.3       1 <0>        -0.0828
      2 C2          1.0952   -3.6013   -0.1504 C.2       1 <0>        -0.0703
      3 C3          0.9970   -4.6002    0.7649 C.2       1 <0>        -0.1386
      4 C4          1.1576   -4.3175    2.1372 C.2       1 <0>         0.5005
      5 O1          1.5005   -3.1967    2.4960 O.co2     1 <0>        -0.6792
      6 O2          0.9543   -5.1925    2.9712 O.co2     1 <0>        -0.6977
      7 C5          1.0981   -3.9061   -1.5339 C.2       1 <0>        -0.0347
      8 C6          0.0891   -4.4501   -2.2955 C.2       1 <0>        -0.1512
      9 C7          0.2984   -4.6745   -3.6631 C.ar      1 <0>        -0.0366
     10 C8         -0.6151   -5.2256   -4.6158 C.ar      1 <0>        -0.0109
     11 C9         -0.2396   -5.3781   -5.9360 C.ar      1 <0>        -0.1142
     12 C10         1.0219   -5.0058   -6.3738 C.ar      1 <0>        -0.1131
     13 C11         1.9270   -4.4702   -5.4777 C.ar      1 <0>        -0.0688
     14 C12         1.5733   -4.3086   -4.1551 C.ar      1 <0>        -0.1315
     15 S1          2.4080   -3.6726   -2.7228 S.3       1 <0>         0.0342
     16 C13        -1.9705   -5.6353   -4.1841 C.ar      1 <0>        -0.0662
     17 C14        -2.3442   -6.9781   -4.2290 C.ar      1 <0>        -0.0973
     18 C15        -3.6087   -7.3542   -3.8255 C.ar      1 <0>        -0.0726
     19 C16        -4.5091   -6.4036   -3.3763 C.ar      1 <0>        -0.1025
     20 C17        -4.1498   -5.0701   -3.3275 C.ar      1 <0>        -0.0796
     21 C18        -2.8813   -4.6777   -3.7236 C.ar      1 <0>         0.1150
     22 O3         -2.5250   -3.3681   -3.6703 O.3       1 <0>        -0.3112
     23 C19        -2.5726   -2.6325   -4.8945 C.3       1 <0>         0.0621
     24 C20        -2.2670   -1.1593   -4.6165 C.3       1 <0>        -0.1548
     25 C21        -2.3179   -0.3717   -5.9272 C.3       1 <0>         0.0686
     26 F1         -2.0385    0.9753   -5.6730 F         1 <0>        -0.2137
     27 C22        -5.1367   -4.0422   -2.8371 C.3       1 <0>        -0.0189
     28 C23        -6.3907   -4.7471   -2.3158 C.3       1 <0>        -0.1443
     29 C24        -4.5042   -3.2257   -1.7083 C.3       1 <0>        -0.1474
     30 C25        -5.5174   -3.1102   -3.9892 C.3       1 <0>        -0.1494
     31 C26        -4.0115   -8.8056   -3.8744 C.3       1 <0>        -0.0268
     32 C27        -2.8445   -9.6412   -4.4043 C.3       1 <0>        -0.1456
     33 C28        -4.3809   -9.2800   -2.4675 C.3       1 <0>        -0.1404
     34 C29        -5.2180   -8.9691   -4.8009 C.3       1 <0>        -0.1368
     35 H1          2.2403   -1.9385    0.5411 H         1 <0>         0.0656
     36 H2          0.8532   -1.5081   -0.4879 H         1 <0>         0.0307
     37 H3          0.5868   -2.0243    1.1945 H         1 <0>         0.0952
     38 H4          0.7959   -5.6109    0.4417 H         1 <0>         0.0993
     39 H5         -0.8579   -4.7028   -1.8420 H         1 <0>         0.1333
     40 H6         -0.9426   -5.7961   -6.6413 H         1 <0>         0.1211
     41 H7          1.2961   -5.1340   -7.4105 H         1 <0>         0.1298
     42 H8          2.9113   -4.1787   -5.8132 H         1 <0>         0.1262
     43 H9         -1.6448   -7.7226   -4.5795 H         1 <0>         0.1301
     44 H10        -5.4975   -6.7056   -3.0628 H         1 <0>         0.1297
     45 H11        -1.8326   -3.0325   -5.5877 H         1 <0>         0.0557
     46 H12        -3.5665   -2.7209   -5.3332 H         1 <0>         0.0619
     47 H13        -3.0070   -0.7593   -3.9233 H         1 <0>         0.0850
     48 H14        -1.2731   -1.0709   -4.1778 H         1 <0>         0.0871
     49 H15        -1.5779   -0.7718   -6.6204 H         1 <0>         0.0757
     50 H16        -3.3118   -0.4602   -6.3659 H         1 <0>         0.0745
     51 H17        -6.1195   -5.4111   -1.4950 H         1 <0>         0.0590
     52 H18        -7.1045   -4.0037   -1.9611 H         1 <0>         0.0579
     53 H19        -6.8413   -5.3288   -3.1200 H         1 <0>         0.0551
     54 H20        -3.6109   -2.7235   -2.0796 H         1 <0>         0.0812
     55 H21        -5.2180   -2.4823   -1.3536 H         1 <0>         0.0521
     56 H22        -4.2331   -3.8897   -0.8875 H         1 <0>         0.0543
     57 H23        -5.7488   -3.7025   -4.8745 H         1 <0>         0.0509
     58 H24        -6.3905   -2.5218   -3.7073 H         1 <0>         0.0578
     59 H25        -4.6839   -2.4422   -4.2067 H         1 <0>         0.0684
     60 H26        -1.9850   -9.5247   -3.7442 H         1 <0>         0.0605
     61 H27        -3.1358  -10.6909   -4.4397 H         1 <0>         0.0579
     62 H28        -2.5813   -9.3032   -5.4066 H         1 <0>         0.0577
     63 H29        -5.2123   -8.6847   -2.0899 H         1 <0>         0.0568
     64 H30        -4.6722  -10.3298   -2.5028 H         1 <0>         0.0578
     65 H31        -3.5214   -9.1635   -1.8074 H         1 <0>         0.0596
     66 H32        -4.9548   -8.6311   -5.8032 H         1 <0>         0.0552
     67 H33        -5.5093  -10.0189   -4.8363 H         1 <0>         0.0575
     68 H34        -6.0494   -8.3738   -4.4234 H         1 <0>         0.0560
@<TRIPOS>BOND
     1    1    2 1
     2    1   35 1
     3    1   36 1
     4    1   37 1
     5    2    3 2
     6    2    7 1
     7    3    4 1
     8    3   38 1
     9    4    5 2
    10    4    6 1
    11    7   15 1
    12    7    8 2
    13    8    9 1
    14    8   39 1
    15    9   14 ar
    16    9   10 ar
    17   10   11 ar
    18   10   16 1
    19   11   12 ar
    20   11   40 1
    21   12   13 ar
    22   12   41 1
    23   13   14 ar
    24   13   42 1
    25   14   15 1
    26   16   21 ar
    27   16   17 ar
    28   17   18 ar
    29   17   43 1
    30   18   19 ar
    31   18   31 1
    32   19   20 ar
    33   19   44 1
    34   20   21 ar
    35   20   27 1
    36   21   22 1
    37   22   23 1
    38   23   24 1
    39   23   45 1
    40   23   46 1
    41   24   25 1
    42   24   47 1
    43   24   48 1
    44   25   26 1
    45   25   49 1
    46   25   50 1
    47   27   28 1
    48   27   29 1
    49   27   30 1
    50   28   51 1
    51   28   52 1
    52   28   53 1
    53   29   54 1
    54   29   55 1
    55   29   56 1
    56   30   57 1
    57   30   58 1
    58   30   59 1
    59   31   32 1
    60   31   33 1
    61   31   34 1
    62   32   60 1
    63   32   61 1
    64   32   62 1
    65   33   63 1
    66   33   64 1
    67   33   65 1
    68   34   66 1
    69   34   67 1
    70   34   68 1
@<TRIPOS>MOLECULE
CHEMBL106817
   54    57     0     0     0
SMALL
USER_CHARGES

@<TRIPOS>ATOM
      1 C1         -0.0184    1.5028    0.0103 C.3       1 <0>        -0.1268
      2 C2          0.0021   -0.0041    0.0020 C.ar      1 <0>        -0.0651
      3 C3          0.0058   -0.6898   -1.1953 C.ar      1 <0>        -0.1208
      4 C4          0.0267   -2.0782   -1.2133 C.ar      1 <0>        -0.0546
      5 C5          0.0474   -2.7754   -0.0260 C.ar      1 <0>        -0.0688
      6 C6          0.0400   -2.0835    1.1780 C.ar      1 <0>        -0.0861
      7 C7          0.0229   -0.7039    1.1938 C.ar      1 <0>        -0.0643
      8 C8          0.0219    0.0372    2.5059 C.3       1 <0>         0.1132
      9 C9          1.2119    0.9494    2.8104 C.3       1 <0>        -0.0244
     10 O1          1.0233   -0.3065    3.4656 O.3       1 <0>        -0.3388
     11 C10        -1.3321    0.4518    3.0217 C.ar      1 <0>        -0.0854
     12 C11        -2.3539    0.7270    2.1300 C.ar      1 <0>        -0.1168
     13 C12        -3.5954    1.1074    2.5948 C.ar      1 <0>        -0.0859
     14 C13        -3.8203    1.2142    3.9696 C.ar      1 <0>        -0.1240
     15 C14        -2.7840    0.9343    4.8640 C.ar      1 <0>        -0.0858
     16 C15        -1.5491    0.5500    4.3849 C.ar      1 <0>        -0.1203
     17 C16        -5.1456    1.6210    4.4745 C.2       1 <0>         0.5187
     18 O2         -6.0504    1.8657    3.6891 O.co2     1 <0>        -0.6860
     19 O3         -5.3392    1.7135    5.6785 O.co2     1 <0>        -0.6862
     20 C17         0.0867   -4.2802    0.0298 C.3       1 <0>        -0.0212
     21 C18        -0.3390   -4.8787   -1.3093 C.3       1 <0>        -0.1116
     22 C19         0.4815   -4.2126   -2.4200 C.3       1 <0>        -0.1106
     23 C20         0.0217   -2.7624   -2.5552 C.3       1 <0>        -0.0230
     24 C21        -1.3957   -2.7342   -3.1307 C.3       1 <0>        -0.1400
     25 C22         0.9653   -2.0202   -3.5036 C.3       1 <0>        -0.1409
     26 C23         1.5103   -4.7359    0.3563 C.3       1 <0>        -0.1385
     27 C24        -0.8625   -4.7693    1.1255 C.3       1 <0>        -0.1446
     28 H1          1.0042    1.8801    0.0026 H         1 <0>         0.0698
     29 H2         -0.5455    1.8639   -0.8728 H         1 <0>         0.0681
     30 H3         -0.5286    1.8543    0.9071 H         1 <0>         0.0790
     31 H4         -0.0079   -0.1422   -2.1261 H         1 <0>         0.1242
     32 H5          0.0510   -2.6297    2.1097 H         1 <0>         0.1228
     33 H6          2.0027    1.0189    2.0635 H         1 <0>         0.1085
     34 H7          1.0230    1.8557    3.3857 H         1 <0>         0.1132
     35 H8         -2.1786    0.6440    1.0676 H         1 <0>         0.1193
     36 H9         -4.3918    1.3226    1.8977 H         1 <0>         0.1286
     37 H10        -2.9507    1.0148    5.9280 H         1 <0>         0.1282
     38 H11        -0.7484    0.3291    5.0752 H         1 <0>         0.1176
     39 H12        -0.1511   -5.9524   -1.3077 H         1 <0>         0.0660
     40 H13        -1.4001   -4.6916   -1.4743 H         1 <0>         0.0698
     41 H14         1.5399   -4.2394   -2.1610 H         1 <0>         0.0678
     42 H15         0.3200   -4.7382   -3.3612 H         1 <0>         0.0657
     43 H16        -1.7202   -1.7001   -3.2468 H         1 <0>         0.0571
     44 H17        -1.4034   -3.2286   -4.1021 H         1 <0>         0.0569
     45 H18        -2.0733   -3.2537   -2.4532 H         1 <0>         0.0595
     46 H19         1.9748   -2.0295   -3.0926 H         1 <0>         0.0554
     47 H20         0.9643   -2.5126   -4.4761 H         1 <0>         0.0566
     48 H21         0.6290   -0.9897   -3.6178 H         1 <0>         0.0591
     49 H22         1.8105   -4.3266    1.3209 H         1 <0>         0.0560
     50 H23         1.5428   -5.8246    0.3976 H         1 <0>         0.0569
     51 H24         2.1917   -4.3811   -0.4169 H         1 <0>         0.0568
     52 H25        -1.8767   -4.4384    0.9020 H         1 <0>         0.0585
     53 H26        -0.8368   -5.8582    1.1690 H         1 <0>         0.0572
     54 H27        -0.5501   -4.3599    2.0862 H         1 <0>         0.0595
@<TRIPOS>BOND
     1    1    2 1
     2    1   28 1
     3    1   29 1
     4    1   30 1
     5    2    7 ar
     6    2    3 ar
     7    3    4 ar
     8    3   31 1
     9    4   23 1
    10    4    5 ar
    11    5    6 ar
    12    5   20 1
    13    6    7 ar
    14    6   32 1
    15    7    8 1
    16    8   10 1
    17    8    9 1
    18    8   11 1
    19    9   10 1
    20    9   33 1
    21    9   34 1
    22   11   16 ar
    23   11   12 ar
    24   12   13 ar
    25   12   35 1
    26   13   14 ar
    27   13   36 1
    28   14   15 ar
    29   14   17 1
    30   15   16 ar
    31   15   37 1
    32   16   38 1
    33   17   18 2
    34   17   19 1
    35   20   21 1
    36   20   26 1
    37   20   27 1
    38   21   22 1
    39   21   39 1
    40   21   40 1
    41   22   23 1
    42   22   41 1
    43   22   42 1
    44   23   24 1
    45   23   25 1
    46   24   43 1
    47   24   44 1
    48   24   45 1
    49   25   46 1
    50   25   47 1
    51   25   48 1
    52   26   49 1
    53   26   50 1
    54   26   51 1
    55   27   52 1
    56   27   53 1
    57   27   54 1
@<TRIPOS>MOLECULE
CHEMBL106817__1
   54    57     0     0     0
SMALL
USER_CHARGES

@<TRIPOS>ATOM
      1 C1         -0.0184    1.5028    0.0103 C.3       1 <0>        -0.1265
      2 C2          0.0021   -0.0041    0.0020 C.ar      1 <0>        -0.0654
      3 C3          0.0058   -0.6898   -1.1953 C.ar      1 <0>        -0.1206
      4 C4          0.0267   -2.0782   -1.2133 C.ar      1 <0>        -0.0546
      5 C5          0.0474   -2.7754   -0.0260 C.ar      1 <0>        -0.0687
      6 C6          0.0400   -2.0835    1.1780 C.ar      1 <0>        -0.0860
      7 C7          0.0229   -0.7039    1.1938 C.ar      1 <0>        -0.0645
      8 C8          0.0219    0.0372    2.5059 C.3       1 <0>         0.1138
      9 C9         -1.1913    0.9113    2.8301 C.3       1 <0>        -0.0261
     10 O1         -0.9524   -0.3378    3.4817 O.3       1 <0>        -0.3385
     11 C10         1.3702    0.4946    2.9996 C.ar      1 <0>        -0.0842
     12 C11         2.3646    0.8126    2.0912 C.ar      1 <0>        -0.1164
     13 C12         3.6011    1.2315    2.5358 C.ar      1 <0>        -0.0863
     14 C13         3.8485    1.3348    3.9070 C.ar      1 <0>        -0.1239
     15 C14         2.8397    1.0125    4.8183 C.ar      1 <0>        -0.0858
     16 C15         1.6063    0.6000    4.3591 C.ar      1 <0>        -0.1207
     17 C16         5.1689    1.7816    4.3903 C.2       1 <0>         0.5184
     18 O2          6.0500    2.0626    3.5901 O.co2     1 <0>        -0.6861
     19 O3          5.3823    1.8710    5.5912 O.co2     1 <0>        -0.6861
     20 C17         0.0867   -4.2802    0.0298 C.3       1 <0>        -0.0215
     21 C18        -0.3390   -4.8787   -1.3093 C.3       1 <0>        -0.1100
     22 C19         0.4815   -4.2126   -2.4200 C.3       1 <0>        -0.1121
     23 C20         0.0217   -2.7624   -2.5552 C.3       1 <0>        -0.0228
     24 C21        -1.3957   -2.7342   -3.1307 C.3       1 <0>        -0.1379
     25 C22         0.9653   -2.0202   -3.5036 C.3       1 <0>        -0.1425
     26 C23        -0.8625   -4.7693    1.1255 C.3       1 <0>        -0.1426
     27 C24         1.5103   -4.7359    0.3563 C.3       1 <0>        -0.1409
     28 H1          1.0042    1.8801    0.0026 H         1 <0>         0.0789
     29 H2         -0.5455    1.8639   -0.8728 H         1 <0>         0.0652
     30 H3         -0.5286    1.8543    0.9071 H         1 <0>         0.0722
     31 H4         -0.0079   -0.1422   -2.1261 H         1 <0>         0.1243
     32 H5          0.0510   -2.6297    2.1097 H         1 <0>         0.1228
     33 H6         -1.0218    1.8234    3.4024 H         1 <0>         0.1136
     34 H7         -1.9960    0.9556    2.0962 H         1 <0>         0.1096
     35 H8          2.1719    0.7323    1.0316 H         1 <0>         0.1189
     36 H9          4.3764    1.4787    1.8257 H         1 <0>         0.1284
     37 H10         3.0239    1.0900    5.8796 H         1 <0>         0.1281
     38 H11         0.8241    0.3547    5.0623 H         1 <0>         0.1174
     39 H12        -0.1511   -5.9524   -1.3077 H         1 <0>         0.0660
     40 H13        -1.4001   -4.6916   -1.4743 H         1 <0>         0.0676
     41 H14         1.5399   -4.2394   -2.1610 H         1 <0>         0.0700
     42 H15         0.3200   -4.7382   -3.3612 H         1 <0>         0.0657
     43 H16        -1.7202   -1.7001   -3.2468 H         1 <0>         0.0555
     44 H17        -1.4034   -3.2286   -4.1021 H         1 <0>         0.0568
     45 H18        -2.0733   -3.2537   -2.4532 H         1 <0>         0.0575
     46 H19         1.9748   -2.0295   -3.0926 H         1 <0>         0.0583
     47 H20         0.9643   -2.5126   -4.4761 H         1 <0>         0.0567
     48 H21         0.6290   -0.9897   -3.6178 H         1 <0>         0.0589
     49 H22        -1.8767   -4.4384    0.9020 H         1 <0>         0.0551
     50 H23        -0.8368   -5.8582    1.1690 H         1 <0>         0.0570
     51 H24        -0.5501   -4.3599    2.0862 H         1 <0>         0.0599
     52 H25         1.8105   -4.3266    1.3209 H         1 <0>         0.0580
     53 H26         1.5428   -5.8246    0.3976 H         1 <0>         0.0571
     54 H27         2.1917   -4.3811   -0.4169 H         1 <0>         0.0589
@<TRIPOS>BOND
     1    1    2 1
     2    1   28 1
     3    1   29 1
     4    1   30 1
     5    2    7 ar
     6    2    3 ar
     7    3    4 ar
     8    3   31 1
     9    4   23 1
    10    4    5 ar
    11    5    6 ar
    12    5   20 1
    13    6    7 ar
    14    6   32 1
    15    7    8 1
    16    8   10 1
    17    8    9 1
    18    8   11 1
    19    9   10 1
    20    9   33 1
    21    9   34 1
    22   11   16 ar
    23   11   12 ar
    24   12   13 ar
    25   12   35 1
    26   13   14 ar
    27   13   36 1
    28   14   15 ar
    29   14   17 1
    30   15   16 ar
    31   15   37 1
    32   16   38 1
    33   17   18 2
    34   17   19 1
    35   20   21 1
    36   20   26 1
    37   20   27 1
    38   21   22 1
    39   21   39 1
    40   21   40 1
    41   22   23 1
    42   22   41 1
    43   22   42 1
    44   23   24 1
    45   23   25 1
    46   24   43 1
    47   24   44 1
    48   24   45 1
    49   25   46 1
    50   25   47 1
    51   25   48 1
    52   26   49 1
    53   26   50 1
    54   26   51 1
    55   27   52 1
    56   27   53 1
    57   27   54 1
@<TRIPOS>MOLECULE
CHEMBL64222
   56    59     0     0     0
SMALL
USER_CHARGES

@<TRIPOS>ATOM
      1 C1         -0.0187    1.5258    0.0104 C.3       1 <0>        -0.1372
      2 C2          0.0021   -0.0041    0.0020 C.3       1 <0>        -0.0220
      3 C3         -1.4328   -0.5271   -0.0149 C.3       1 <0>        -0.1124
      4 C4         -2.0769   -0.2161    1.3413 C.3       1 <0>        -0.1098
      5 C5         -1.4248   -1.1043    2.3990 C.3       1 <0>        -0.0221
      6 C6          0.0761   -0.9993    2.3263 C.ar      1 <0>        -0.0609
      7 C7          0.7315   -0.4976    1.2240 C.ar      1 <0>        -0.0653
      8 C8          2.1187   -0.4341    1.2187 C.ar      1 <0>        -0.1163
      9 C9          2.8446   -0.8662    2.3097 C.ar      1 <0>        -0.1040
     10 C10         2.1866   -1.3661    3.4176 C.ar      1 <0>        -0.0611
     11 C11         0.8084   -1.4318    3.4241 C.ar      1 <0>        -0.1069
     12 C12         2.9717   -1.8382    4.6142 C.3       1 <0>         0.0387
     13 C13         3.8244   -0.6862    5.1597 C.3       1 <0>        -0.1129
     14 C14         4.8059   -1.2254    6.2038 C.3       1 <0>        -0.1152
     15 C15         5.8773   -2.0747    5.5085 C.3       1 <0>        -0.0282
     16 C16         5.1869   -3.0635    4.6040 C.2       1 <0>        -0.0726
     17 C17         3.8932   -2.9608    4.2065 C.2       1 <0>         0.0025
     18 N1          3.6223   -4.0003    3.4254 N.2       1 <0>        -0.4630
     19 C18         4.7075   -4.7433    3.3239 C.2       1 <0>         0.2334
     20 O1          5.6901   -4.1712    4.0497 O.3       1 <0>        -0.1848
     21 C19         4.8261   -5.9811    2.5515 C.2       1 <0>        -0.0828
     22 C20         6.0014   -6.6548    2.5277 C.2       1 <0>        -0.1264
     23 C21         6.1160   -7.8516    1.7810 C.2       1 <0>         0.5010
     24 O2          5.1525   -8.2784    1.1561 O.co2     1 <0>        -0.6856
     25 O3          7.1788   -8.4608    1.7595 O.co2     1 <0>        -0.6899
     26 C22        -1.8409   -2.5577    2.1636 C.3       1 <0>        -0.1404
     27 C23        -1.8947   -0.6643    3.7869 C.3       1 <0>        -0.1409
     28 C24         0.7308   -0.4918   -1.2518 C.3       1 <0>        -0.1432
     29 H1          1.0039    1.9031    0.0027 H         1 <0>         0.0546
     30 H2         -0.5459    1.8868   -0.8726 H         1 <0>         0.0558
     31 H3         -0.5289    1.8773    0.9072 H         1 <0>         0.0569
     32 H4         -1.9937   -0.0346   -0.8092 H         1 <0>         0.0649
     33 H5         -1.4289   -1.6043   -0.1811 H         1 <0>         0.0700
     34 H6         -1.9161    0.8323    1.5924 H         1 <0>         0.0671
     35 H7         -3.1461   -0.4235    1.2962 H         1 <0>         0.0650
     36 H8          2.6337   -0.0437    0.3534 H         1 <0>         0.1181
     37 H9          3.9233   -0.8135    2.2981 H         1 <0>         0.1129
     38 H10         0.2950   -1.8229    4.2900 H         1 <0>         0.1188
     39 H11         2.2876   -2.1874    5.3876 H         1 <0>         0.0904
     40 H12         4.3801   -0.2269    4.3421 H         1 <0>         0.0713
     41 H13         3.1761    0.0586    5.6213 H         1 <0>         0.0765
     42 H14         5.2817   -0.3916    6.7199 H         1 <0>         0.0806
     43 H15         4.2673   -1.8396    6.9255 H         1 <0>         0.0710
     44 H16         6.5301   -1.4312    4.9186 H         1 <0>         0.0855
     45 H17         6.4646   -2.6085    6.2556 H         1 <0>         0.0844
     46 H18         3.9768   -6.3574    2.0006 H         1 <0>         0.1634
     47 H19         6.8507   -6.2786    3.0786 H         1 <0>         0.1057
     48 H20        -1.5164   -2.8725    1.1718 H         1 <0>         0.0593
     49 H21        -1.3773   -3.1949    2.9168 H         1 <0>         0.0579
     50 H22        -2.9254   -2.6413    2.2347 H         1 <0>         0.0557
     51 H23        -2.9789   -0.7573    3.8498 H         1 <0>         0.0560
     52 H24        -1.4313   -1.2961    4.5447 H         1 <0>         0.0589
     53 H25        -1.6088    0.3740    3.9551 H         1 <0>         0.0548
     54 H26         1.7527   -0.1125   -1.2487 H         1 <0>         0.0580
     55 H27         0.7477   -1.5816   -1.2614 H         1 <0>         0.0586
     56 H28         0.2111   -0.1286   -2.1384 H         1 <0>         0.0560
@<TRIPOS>BOND
     1    1    2 1
     2    1   29 1
     3    1   30 1
     4    1   31 1
     5    2    7 1
     6    2    3 1
     7    2   28 1
     8    3    4 1
     9    3   32 1
    10    3   33 1
    11    4    5 1
    12    4   34 1
    13    4   35 1
    14    5    6 1
    15    5   26 1
    16    5   27 1
    17    6   11 ar
    18    6    7 ar
    19    7    8 ar
    20    8    9 ar
    21    8   36 1
    22    9   10 ar
    23    9   37 1
    24   10   11 ar
    25   10   12 1
    26   11   38 1
    27   12   17 1
    28   12   13 1
    29   12   39 1
    30   13   14 1
    31   13   40 1
    32   13   41 1
    33   14   15 1
    34   14   42 1
    35   14   43 1
    36   15   16 1
    37   15   44 1
    38   15   45 1
    39   16   20 1
    40   16   17 2
    41   17   18 1
    42   18   19 2
    43   19   20 1
    44   19   21 1
    45   21   22 2
    46   21   46 1
    47   22   23 1
    48   22   47 1
    49   23   24 2
    50   23   25 1
    51   26   48 1
    52   26   49 1
    53   26   50 1
    54   27   51 1
    55   27   52 1
    56   27   53 1
    57   28   54 1
    58   28   55 1
    59   28   56 1
@<TRIPOS>MOLECULE
CHEMBL64222__1
   56    59     0     0     0
SMALL
USER_CHARGES

@<TRIPOS>ATOM
      1 C1         -0.0187    1.5258    0.0104 C.3       1 <0>        -0.1403
      2 C2          0.0021   -0.0041    0.0020 C.3       1 <0>        -0.0225
      3 C3         -1.4328   -0.5271   -0.0149 C.3       1 <0>        -0.1099
      4 C4         -2.0769   -0.2161    1.3413 C.3       1 <0>        -0.1123
      5 C5         -1.4248   -1.1043    2.3990 C.3       1 <0>        -0.0217
      6 C6          0.0761   -0.9993    2.3263 C.ar      1 <0>        -0.0612
      7 C7          0.7315   -0.4976    1.2240 C.ar      1 <0>        -0.0650
      8 C8          2.1187   -0.4341    1.2187 C.ar      1 <0>        -0.1165
      9 C9          2.8446   -0.8662    2.3097 C.ar      1 <0>        -0.1038
     10 C10         2.1866   -1.3661    3.4176 C.ar      1 <0>        -0.0613
     11 C11         0.8084   -1.4318    3.4241 C.ar      1 <0>        -0.1067
     12 C12         2.9717   -1.8382    4.6142 C.3       1 <0>         0.0387
     13 C13         3.9276   -2.9615    4.1942 C.3       1 <0>        -0.1129
     14 C14         4.8983   -3.2626    5.3394 C.3       1 <0>        -0.1152
     15 C15         5.8781   -2.0936    5.5004 C.3       1 <0>        -0.0282
     16 C16         5.0848   -0.8131    5.5588 C.2       1 <0>        -0.0727
     17 C17         3.7906   -0.6980    5.1666 C.2       1 <0>         0.0026
     18 N1          3.4156    0.5612    5.3604 N.2       1 <0>        -0.4628
     19 C18         4.4368    1.2316    5.8583 C.2       1 <0>         0.2333
     20 O1          5.4830    0.3897    5.9858 O.3       1 <0>        -0.1848
     21 C19         4.4349    2.6517    6.2134 C.2       1 <0>        -0.0827
     22 C20         5.5537    3.2251    6.7185 C.2       1 <0>        -0.1265
     23 C21         5.5519    4.5982    7.0620 C.2       1 <0>         0.5011
     24 O2          4.5386    5.2681    6.9025 O.co2     1 <0>        -0.6856
     25 O3          6.5635    5.1167    7.5187 O.co2     1 <0>        -0.6898
     26 C22        -1.8409   -2.5577    2.1636 C.3       1 <0>        -0.1375
     27 C23        -1.8947   -0.6643    3.7869 C.3       1 <0>        -0.1430
     28 C24         0.7308   -0.4918   -1.2518 C.3       1 <0>        -0.1407
     29 H1          1.0039    1.9031    0.0027 H         1 <0>         0.0566
     30 H2         -0.5459    1.8868   -0.8726 H         1 <0>         0.0560
     31 H3         -0.5289    1.8773    0.9072 H         1 <0>         0.0596
     32 H4         -1.9937   -0.0346   -0.8092 H         1 <0>         0.0648
     33 H5         -1.4289   -1.6043   -0.1811 H         1 <0>         0.0672
     34 H6         -1.9161    0.8323    1.5924 H         1 <0>         0.0699
     35 H7         -3.1461   -0.4235    1.2962 H         1 <0>         0.0651
     36 H8          2.6337   -0.0437    0.3534 H         1 <0>         0.1181
     37 H9          3.9233   -0.8135    2.2981 H         1 <0>         0.1129
     38 H10         0.2950   -1.8229    4.2900 H         1 <0>         0.1189
     39 H11         2.2883   -2.2043    5.3804 H         1 <0>         0.0904
     40 H12         3.3537   -3.8579    3.9595 H         1 <0>         0.0764
     41 H13         4.4899   -2.6497    3.3141 H         1 <0>         0.0714
     42 H14         4.3380   -3.3970    6.2647 H         1 <0>         0.0710
     43 H15         5.4532   -4.1735    5.1152 H         1 <0>         0.0806
     44 H16         6.4468   -2.2155    6.4223 H         1 <0>         0.0844
     45 H17         6.5588   -2.0653    4.6496 H         1 <0>         0.0855
     46 H18         3.5417    3.2423    6.0729 H         1 <0>         0.1634
     47 H19         6.4469    2.6345    6.8591 H         1 <0>         0.1056
     48 H20        -1.5164   -2.8725    1.1718 H         1 <0>         0.0568
     49 H21        -1.3773   -3.1949    2.9168 H         1 <0>         0.0551
     50 H22        -2.9254   -2.6413    2.2347 H         1 <0>         0.0559
     51 H23        -2.9789   -0.7573    3.8498 H         1 <0>         0.0557
     52 H24        -1.4313   -1.2961    4.5447 H         1 <0>         0.0584
     53 H25        -1.6088    0.3740    3.9551 H         1 <0>         0.0591
     54 H26         1.7527   -0.1125   -1.2487 H         1 <0>         0.0584
     55 H27         0.7477   -1.5816   -1.2614 H         1 <0>         0.0548
     56 H28         0.2111   -0.1286   -2.1384 H         1 <0>         0.0559
@<TRIPOS>BOND
     1    1    2 1
     2    1   29 1
     3    1   30 1
     4    1   31 1
     5    2    7 1
     6    2    3 1
     7    2   28 1
     8    3    4 1
     9    3   32 1
    10    3   33 1
    11    4    5 1
    12    4   34 1
    13    4   35 1
    14    5    6 1
    15    5   26 1
    16    5   27 1
    17    6   11 ar
    18    6    7 ar
    19    7    8 ar
    20    8    9 ar
    21    8   36 1
    22    9   10 ar
    23    9   37 1
    24   10   11 ar
    25   10   12 1
    26   11   38 1
    27   12   17 1
    28   12   13 1
    29   12   39 1
    30   13   14 1
    31   13   40 1
    32   13   41 1
    33   14   15 1
    34   14   42 1
    35   14   43 1
    36   15   16 1
    37   15   44 1
    38   15   45 1
    39   16   20 1
    40   16   17 2
    41   17   18 1
    42   18   19 2
    43   19   20 1
    44   19   21 1
    45   21   22 2
    46   21   46 1
    47   22   23 1
    48   22   47 1
    49   23   24 2
    50   23   25 1
    51   26   48 1
    52   26   49 1
    53   26   50 1
    54   27   51 1
    55   27   52 1
    56   27   53 1
    57   28   54 1
    58   28   55 1
    59   28   56 1
@<TRIPOS>MOLECULE
CHEMBL101609
   50    52     0     0     0
SMALL
USER_CHARGES

@<TRIPOS>ATOM
      1 C1         -0.0187    1.5258    0.0104 C.3       1 <0>        -0.1391
      2 C2          0.0021   -0.0041    0.0020 C.3       1 <0>        -0.0219
      3 C3         -1.4327   -0.5270   -0.0152 C.3       1 <0>        -0.1126
      4 C4         -2.0770   -0.2153    1.3407 C.3       1 <0>        -0.1106
      5 C5         -1.4263   -1.1042    2.3984 C.3       1 <0>        -0.0217
      6 C6          0.0752   -0.9998    2.3276 C.ar      1 <0>        -0.0541
      7 C7          0.7317   -0.4977    1.2243 C.ar      1 <0>        -0.0591
      8 C8          2.1167   -0.4330    1.2162 C.ar      1 <0>        -0.0947
      9 C9          2.8497   -0.8686    2.3152 C.ar      1 <0>        -0.0313
     10 C10         2.1808   -1.3722    3.4308 C.ar      1 <0>        -0.0211
     11 C11         0.8036   -1.4338    3.4287 C.ar      1 <0>        -0.1112
     12 Cl1         3.0772   -1.9187    4.8133 Cl        1 <0>        -0.0593
     13 C12         4.3309   -0.7985    2.3008 C.2       1 <0>        -0.0366
     14 C13         4.9472    0.3807    2.4560 C.2       1 <0>        -0.1657
     15 C14         5.1291   -2.0326    2.1148 C.ar      1 <0>        -0.0656
     16 C15         5.0609   -2.7319    0.9085 C.ar      1 <0>        -0.1196
     17 C16         5.7987   -3.8745    0.7350 C.ar      1 <0>        -0.0873
     18 C17         6.6204   -4.3391    1.7673 C.ar      1 <0>        -0.1262
     19 C18         6.6880   -3.6370    2.9753 C.ar      1 <0>        -0.0877
     20 C19         5.9530   -2.4918    3.1439 C.ar      1 <0>        -0.1125
     21 C20         7.4136   -5.5672    1.5826 C.2       1 <0>         0.5179
     22 O1          7.3537   -6.1809    0.5262 O.co2     1 <0>        -0.6880
     23 O2          8.1319   -5.9729    2.4857 O.co2     1 <0>        -0.6876
     24 C21        -1.8427   -2.5573    2.1619 C.3       1 <0>        -0.1414
     25 C22        -1.8976   -0.6648    3.7861 C.3       1 <0>        -0.1431
     26 C23         0.7309   -0.4917   -1.2517 C.3       1 <0>        -0.1449
     27 H1          1.0039    1.9031    0.0027 H         1 <0>         0.0568
     28 H2         -0.5459    1.8868   -0.8726 H         1 <0>         0.0585
     29 H3         -0.5289    1.8773    0.9072 H         1 <0>         0.0579
     30 H4         -1.9934   -0.0348   -0.8099 H         1 <0>         0.0678
     31 H5         -1.4289   -1.6043   -0.1809 H         1 <0>         0.0706
     32 H6         -1.9151    0.8329    1.5919 H         1 <0>         0.0691
     33 H7         -3.1464   -0.4215    1.2952 H         1 <0>         0.0677
     34 H8          2.6301   -0.0420    0.3502 H         1 <0>         0.1316
     35 H9          0.2851   -1.8236    4.2922 H         1 <0>         0.1320
     36 H10         6.0259    0.4318    2.4455 H         1 <0>         0.1085
     37 H11         4.3653    1.2804    2.5916 H         1 <0>         0.1006
     38 H12         4.4264   -2.3729    0.1117 H         1 <0>         0.1106
     39 H13         5.7452   -4.4157   -0.1981 H         1 <0>         0.1256
     40 H14         7.3220   -3.9945    3.7732 H         1 <0>         0.1257
     41 H15         6.0084   -1.9471    4.0748 H         1 <0>         0.1121
     42 H16        -1.5174   -2.8716    1.1701 H         1 <0>         0.0602
     43 H17        -1.3801   -3.1951    2.9151 H         1 <0>         0.0576
     44 H18        -2.9273   -2.6405    2.2318 H         1 <0>         0.0588
     45 H19        -2.9819   -0.7576    3.8478 H         1 <0>         0.0588
     46 H20        -1.4351   -1.2971    4.5440 H         1 <0>         0.0595
     47 H21        -1.6116    0.3733    3.9551 H         1 <0>         0.0568
     48 H22         1.7528   -0.1125   -1.2485 H         1 <0>         0.0603
     49 H23         0.7479   -1.5815   -1.2614 H         1 <0>         0.0592
     50 H24         0.2114   -0.1285   -2.1384 H         1 <0>         0.0588
@<TRIPOS>BOND
     1    1    2 1
     2    1   27 1
     3    1   28 1
     4    1   29 1
     5    2    7 1
     6    2    3 1
     7    2   26 1
     8    3    4 1
     9    3   30 1
    10    3   31 1
    11    4    5 1
    12    4   32 1
    13    4   33 1
    14    5    6 1
    15    5   24 1
    16    5   25 1
    17    6   11 ar
    18    6    7 ar
    19    7    8 ar
    20    8    9 ar
    21    8   34 1
    22    9   10 ar
    23    9   13 1
    24   10   11 ar
    25   10   12 1
    26   11   35 1
    27   13   14 2
    28   13   15 1
    29   14   36 1
    30   14   37 1
    31   15   20 ar
    32   15   16 ar
    33   16   17 ar
    34   16   38 1
    35   17   18 ar
    36   17   39 1
    37   18   19 ar
    38   18   21 1
    39   19   20 ar
    40   19   40 1
    41   20   41 1
    42   21   22 2
    43   21   23 1
    44   24   42 1
    45   24   43 1
    46   24   44 1
    47   25   45 1
    48   25   46 1
    49   25   47 1
    50   26   48 1
    51   26   49 1
    52   26   50 1
@<TRIPOS>MOLECULE
CHEMBL37950
   52    55     0     0     0
SMALL
USER_CHARGES

@<TRIPOS>ATOM
      1 C1         -0.0184    1.5028    0.0103 C.3       1 <0>        -0.0704
      2 C2          0.0021   -0.0041    0.0020 C.2       1 <0>        -0.1382
      3 C3         -1.0323   -0.8864    0.0016 C.2       1 <0>         0.0421
      4 N1         -0.7915   -2.1763   -0.0069 N.2       1 <0>        -0.4799
      5 C4          0.4484   -2.6450   -0.0151 C.2       1 <0>         0.1533
      6 S1          1.3937   -1.1273   -0.0179 S.3       1 <0>         0.0240
      7 C5          0.9222   -4.0457   -0.0252 C.ar      1 <0>        -0.0181
      8 C6          0.0035   -5.0961   -0.0330 C.ar      1 <0>        -0.0702
      9 C7          0.4521   -6.4008   -0.0424 C.ar      1 <0>        -0.1198
     10 C8          1.8094   -6.6688   -0.0441 C.ar      1 <0>        -0.0991
     11 C9          2.7254   -5.6319   -0.0365 C.ar      1 <0>        -0.1174
     12 C10         2.2899   -4.3228   -0.0329 C.ar      1 <0>        -0.0924
     13 C11        -2.4530   -0.3838    0.0112 C.3       1 <0>         0.1363
     14 O1         -2.9084   -0.2169   -1.3329 O.3       1 <0>        -0.3078
     15 C12        -4.1794    0.2335   -1.5023 C.ar      1 <0>         0.1296
     16 C13        -4.9700    0.5145   -0.3975 C.ar      1 <0>        -0.2070
     17 C14        -6.2615    0.9726   -0.5724 C.ar      1 <0>        -0.0745
     18 C15        -6.7665    1.1507   -1.8471 C.ar      1 <0>        -0.1218
     19 C16        -5.9807    0.8709   -2.9499 C.ar      1 <0>        -0.0743
     20 C17        -4.6865    0.4184   -2.7803 C.ar      1 <0>        -0.1481
     21 C18        -8.1758    1.6501   -2.0350 C.3       1 <0>        -0.0756
     22 C19        -8.1709    3.1787   -2.0995 C.3       1 <0>        -0.1136
     23 C20        -9.6018    3.6858   -2.2902 C.3       1 <0>        -0.1205
     24 C21        -9.5968    5.2144   -2.3548 C.3       1 <0>         0.0398
     25 C22       -11.0074    5.7435   -2.5164 C.2       1 <0>         0.5069
     26 O2        -11.9360    5.6029   -1.7499 O.2       1 <0>        -0.4442
     27 N2        -11.0123    6.4045   -3.6921 N.am      1 <0>        -0.6855
     28 C23        -9.8054    6.3538   -4.2704 C.2       1 <0>         0.6503
     29 O3         -9.5444    6.8717   -5.3376 O.2       1 <0>        -0.4689
     30 O4         -8.9172    5.6658   -3.5360 O.3       1 <0>        -0.2931
     31 H1          1.0042    1.8801    0.0026 H         1 <0>         0.0801
     32 H2         -0.5455    1.8639   -0.8728 H         1 <0>         0.0901
     33 H3         -0.5286    1.8543    0.9071 H         1 <0>         0.0873
     34 H4         -1.0563   -4.8882   -0.0312 H         1 <0>         0.1354
     35 H5         -0.2578   -7.2146   -0.0480 H         1 <0>         0.1320
     36 H6          2.1554   -7.6918   -0.0511 H         1 <0>         0.1295
     37 H7          3.7836   -5.8478   -0.0379 H         1 <0>         0.1322
     38 H8          3.0059   -3.5142   -0.0318 H         1 <0>         0.1265
     39 H9         -3.0900   -1.1048    0.5237 H         1 <0>         0.0790
     40 H10        -2.4963    0.5732    0.5311 H         1 <0>         0.0790
     41 H11        -4.5763    0.3749    0.5984 H         1 <0>         0.1268
     42 H12        -6.8774    1.1915    0.2874 H         1 <0>         0.1247
     43 H13        -6.3775    1.0105   -3.9446 H         1 <0>         0.1290
     44 H14        -4.0716    0.2042   -3.6420 H         1 <0>         0.1297
     45 H15        -8.5829    1.2486   -2.9630 H         1 <0>         0.0737
     46 H16        -8.7917    1.3238   -1.1969 H         1 <0>         0.0741
     47 H17        -7.7638    3.5803   -1.1715 H         1 <0>         0.0721
     48 H18        -7.5551    3.5050   -2.9376 H         1 <0>         0.0768
     49 H19       -10.0089    3.2843   -3.2182 H         1 <0>         0.0816
     50 H20       -10.2176    3.3595   -1.4521 H         1 <0>         0.1017
     51 H21        -9.1301    5.6318   -1.4626 H         1 <0>         0.1531
     52 H22       -11.7848    6.8549   -4.0677 H         1 <0>         0.4437
@<TRIPOS>BOND
     1    1    2 1
     2    1   31 1
     3    1   32 1
     4    1   33 1
     5    2    6 1
     6    2    3 2
     7    3    4 1
     8    3   13 1
     9    4    5 2
    10    5    6 1
    11    5    7 1
    12    7   12 ar
    13    7    8 ar
    14    8    9 ar
    15    8   34 1
    16    9   10 ar
    17    9   35 1
    18   10   11 ar
    19   10   36 1
    20   11   12 ar
    21   11   37 1
    22   12   38 1
    23   13   14 1
    24   13   39 1
    25   13   40 1
    26   14   15 1
    27   15   20 ar
    28   15   16 ar
    29   16   17 ar
    30   16   41 1
    31   17   18 ar
    32   17   42 1
    33   18   19 ar
    34   18   21 1
    35   19   20 ar
    36   19   43 1
    37   20   44 1
    38   21   22 1
    39   21   45 1
    40   21   46 1
    41   22   23 1
    42   22   47 1
    43   22   48 1
    44   23   24 1
    45   23   49 1
    46   23   50 1
    47   24   30 1
    48   24   25 1
    49   24   51 1
    50   25   26 2
    51   25   27 am
    52   27   28 am
    53   27   52 1
    54   28   29 2
    55   28   30 1
@<TRIPOS>MOLECULE
CHEMBL37950__1
   52    55     0     0     0
SMALL
USER_CHARGES

@<TRIPOS>ATOM
      1 C1         -0.0184    1.5028    0.0103 C.3       1 <0>        -0.0704
      2 C2          0.0021   -0.0041    0.0020 C.2       1 <0>        -0.1380
      3 C3         -1.0323   -0.8864    0.0016 C.2       1 <0>         0.0422
      4 N1         -0.7915   -2.1763   -0.0069 N.2       1 <0>        -0.4798
      5 C4          0.4484   -2.6450   -0.0151 C.2       1 <0>         0.1532
      6 S1          1.3937   -1.1273   -0.0179 S.3       1 <0>         0.0238
      7 C5          0.9222   -4.0457   -0.0252 C.ar      1 <0>        -0.0180
      8 C6          0.0035   -5.0961   -0.0330 C.ar      1 <0>        -0.0702
      9 C7          0.4521   -6.4008   -0.0424 C.ar      1 <0>        -0.1198
     10 C8          1.8094   -6.6688   -0.0441 C.ar      1 <0>        -0.0991
     11 C9          2.7254   -5.6319   -0.0365 C.ar      1 <0>        -0.1174
     12 C10         2.2899   -4.3228   -0.0329 C.ar      1 <0>        -0.0924
     13 C11        -2.4530   -0.3838    0.0112 C.3       1 <0>         0.1361
     14 O1         -2.9084   -0.2169   -1.3329 O.3       1 <0>        -0.3078
     15 C12        -4.1794    0.2335   -1.5023 C.ar      1 <0>         0.1296
     16 C13        -4.9700    0.5145   -0.3975 C.ar      1 <0>        -0.2064
     17 C14        -6.2615    0.9726   -0.5724 C.ar      1 <0>        -0.0735
     18 C15        -6.7665    1.1507   -1.8471 C.ar      1 <0>        -0.1219
     19 C16        -5.9807    0.8709   -2.9499 C.ar      1 <0>        -0.0752
     20 C17        -4.6865    0.4184   -2.7803 C.ar      1 <0>        -0.1487
     21 C18        -8.1758    1.6501   -2.0350 C.3       1 <0>        -0.0756
     22 C19        -8.1709    3.1787   -2.0995 C.3       1 <0>        -0.1136
     23 C20        -9.6018    3.6858   -2.2902 C.3       1 <0>        -0.1205
     24 C21        -9.5968    5.2144   -2.3548 C.3       1 <0>         0.0398
     25 C22       -11.0010    5.7412   -2.5707 C.2       1 <0>         0.5068
     26 O2        -11.7276    5.5266   -3.5171 O.2       1 <0>        -0.4440
     27 N2        -11.2727    6.4983   -1.4882 N.am      1 <0>        -0.6855
     28 C23       -10.2342    6.5083   -0.6427 C.2       1 <0>         0.6504
     29 O3        -10.2235    7.1165    0.4086 O.2       1 <0>        -0.4693
     30 O4         -9.2063    5.7700   -1.0899 O.3       1 <0>        -0.2933
     31 H1          1.0042    1.8801    0.0026 H         1 <0>         0.0801
     32 H2         -0.5455    1.8639   -0.8728 H         1 <0>         0.0900
     33 H3         -0.5286    1.8543    0.9071 H         1 <0>         0.0876
     34 H4         -1.0563   -4.8882   -0.0312 H         1 <0>         0.1354
     35 H5         -0.2578   -7.2146   -0.0480 H         1 <0>         0.1319
     36 H6          2.1554   -7.6918   -0.0511 H         1 <0>         0.1295
     37 H7          3.7836   -5.8478   -0.0379 H         1 <0>         0.1322
     38 H8          3.0059   -3.5142   -0.0318 H         1 <0>         0.1265
     39 H9         -3.0900   -1.1048    0.5237 H         1 <0>         0.0791
     40 H10        -2.4963    0.5732    0.5311 H         1 <0>         0.0792
     41 H11        -4.5763    0.3749    0.5984 H         1 <0>         0.1270
     42 H12        -6.8774    1.1915    0.2874 H         1 <0>         0.1247
     43 H13        -6.3775    1.0105   -3.9446 H         1 <0>         0.1291
     44 H14        -4.0716    0.2042   -3.6420 H         1 <0>         0.1295
     45 H15        -8.5829    1.2486   -2.9630 H         1 <0>         0.0747
     46 H16        -8.7917    1.3238   -1.1969 H         1 <0>         0.0730
     47 H17        -7.7638    3.5803   -1.1715 H         1 <0>         0.0761
     48 H18        -7.5551    3.5050   -2.9376 H         1 <0>         0.0727
     49 H19       -10.0089    3.2843   -3.2182 H         1 <0>         0.1020
     50 H20       -10.2176    3.3595   -1.4521 H         1 <0>         0.0813
     51 H21        -8.9311    5.5601   -3.1456 H         1 <0>         0.1534
     52 H22       -12.1068    6.9715   -1.3420 H         1 <0>         0.4437
@<TRIPOS>BOND
     1    1    2 1
     2    1   31 1
     3    1   32 1
     4    1   33 1
     5    2    6 1
     6    2    3 2
     7    3    4 1
     8    3   13 1
     9    4    5 2
    10    5    6 1
    11    5    7 1
    12    7   12 ar
    13    7    8 ar
    14    8    9 ar
    15    8   34 1
    16    9   10 ar
    17    9   35 1
    18   10   11 ar
    19   10   36 1
    20   11   12 ar
    21   11   37 1
    22   12   38 1
    23   13   14 1
    24   13   39 1
    25   13   40 1
    26   14   15 1
    27   15   20 ar
    28   15   16 ar
    29   16   17 ar
    30   16   41 1
    31   17   18 ar
    32   17   42 1
    33   18   19 ar
    34   18   21 1
    35   19   20 ar
    36   19   43 1
    37   20   44 1
    38   21   22 1
    39   21   45 1
    40   21   46 1
    41   22   23 1
    42   22   47 1
    43   22   48 1
    44   23   24 1
    45   23   49 1
    46   23   50 1
    47   24   30 1
    48   24   25 1
    49   24   51 1
    50   25   26 2
    51   25   27 am
    52   27   28 am
    53   27   52 1
    54   28   29 2
    55   28   30 1
@<TRIPOS>MOLECULE
CHEMBL583410
   54    56     0     0     0
SMALL
USER_CHARGES

@<TRIPOS>ATOM
      1 C1         -0.2376    1.3023   -0.1236 C.3       1 <0>        -0.1241
      2 C2          0.0628   -0.1742   -0.1516 C.ar      1 <0>        -0.0750
      3 C3          0.0728   -0.8560   -1.3511 C.ar      1 <0>        -0.1167
      4 C4          0.3504   -2.2161   -1.3874 C.ar      1 <0>        -0.0616
      5 C5          0.6215   -2.8884   -0.2166 C.ar      1 <0>        -0.0671
      6 C6          0.6075   -2.2011    0.9900 C.ar      1 <0>        -0.1074
      7 C7          0.3349   -0.8490    1.0236 C.ar      1 <0>        -0.0793
      8 C8          0.3290   -0.1113    2.3377 C.3       1 <0>        -0.0358
      9 C9          1.6653    0.5530    2.5469 C.ar      1 <0>        -0.0813
     10 C10         2.7154   -0.1676    3.0889 C.ar      1 <0>        -0.0917
     11 C11         3.9410    0.4337    3.2832 C.ar      1 <0>        -0.0778
     12 C12         4.1216    1.7739    2.9310 C.ar      1 <0>        -0.0849
     13 C13         3.0573    2.4949    2.3841 C.ar      1 <0>        -0.0076
     14 C14         1.8383    1.8788    2.1910 C.ar      1 <0>        -0.0834
     15 N1          3.2387    3.9150    2.0083 N.pl3     1 <0>         0.0384
     16 O1          3.7145    4.6940    2.8011 O.2       1 <0>        -0.0680
     17 O2          2.9110    4.2960    0.9087 O.3       1 <0>        -0.2187
     18 C15         5.4298    2.4244    3.1363 C.2       1 <0>         0.5110
     19 O3          6.3205    1.8328    3.7297 O.co2     1 <0>        -0.6710
     20 O4          5.6234    3.5553    2.7130 O.co2     1 <0>        -0.6537
     21 C16         0.9464   -4.3589   -0.1827 C.3       1 <0>        -0.0217
     22 C17         0.5061   -5.0364   -1.4787 C.3       1 <0>        -0.1101
     23 C18         1.0706   -4.2369   -2.6589 C.3       1 <0>        -0.1121
     24 C19         0.3368   -2.8993   -2.7298 C.3       1 <0>        -0.0223
     25 C20        -1.1119   -3.1407   -3.1585 C.3       1 <0>        -0.1374
     26 C21         1.0240   -2.0008   -3.7602 C.3       1 <0>        -0.1430
     27 C22         2.4557   -4.5381   -0.0073 C.3       1 <0>        -0.1404
     28 C23         0.2216   -5.0086    0.9977 C.3       1 <0>        -0.1411
     29 H1          0.6967    1.8635   -0.1391 H         1 <0>         0.0781
     30 H2         -0.8354    1.5680   -0.9954 H         1 <0>         0.0646
     31 H3         -0.7912    1.5433    0.7838 H         1 <0>         0.0674
     32 H4         -0.1375   -0.3276   -2.2693 H         1 <0>         0.1205
     33 H5          0.8149   -2.7287    1.9093 H         1 <0>         0.1208
     34 H6         -0.4552    0.6456    2.3259 H         1 <0>         0.0844
     35 H7          0.1423   -0.8153    3.1487 H         1 <0>         0.0843
     36 H8          2.5743   -1.2033    3.3607 H         1 <0>         0.1303
     37 H9          4.7593   -0.1296    3.7069 H         1 <0>         0.1468
     38 H10         1.0158    2.4338    1.7645 H         1 <0>         0.1354
     39 H11         0.8902   -6.0560   -1.5088 H         1 <0>         0.0653
     40 H12        -0.5825   -5.0520   -1.5332 H         1 <0>         0.0675
     41 H13         2.1362   -4.0636   -2.5087 H         1 <0>         0.0693
     42 H14         0.9152   -4.7904   -3.5850 H         1 <0>         0.0653
     43 H15        -1.6338   -2.1863   -3.2290 H         1 <0>         0.0551
     44 H16        -1.1258   -3.6350   -4.1299 H         1 <0>         0.0563
     45 H17        -1.6082   -3.7726   -2.4220 H         1 <0>         0.0572
     46 H18         2.0539   -1.8183   -3.4536 H         1 <0>         0.0575
     47 H19         1.0161   -2.4920   -4.7332 H         1 <0>         0.0565
     48 H20         0.4914   -1.0522   -3.8277 H         1 <0>         0.0587
     49 H21         2.7708   -4.0727    0.9266 H         1 <0>         0.0573
     50 H22         2.6949   -5.6012    0.0176 H         1 <0>         0.0567
     51 H23         2.9768   -4.0679   -0.8414 H         1 <0>         0.0583
     52 H24        -0.8539   -4.8747    0.8819 H         1 <0>         0.0551
     53 H25         0.4543   -6.0731    1.0256 H         1 <0>         0.0564
     54 H26         0.5481   -4.5409    1.9266 H         1 <0>         0.0589
@<TRIPOS>BOND
     1    1    2 1
     2    1   29 1
     3    1   30 1
     4    1   31 1
     5    2    7 ar
     6    2    3 ar
     7    3    4 ar
     8    3   32 1
     9    4   24 1
    10    4    5 ar
    11    5    6 ar
    12    5   21 1
    13    6    7 ar
    14    6   33 1
    15    7    8 1
    16    8    9 1
    17    8   34 1
    18    8   35 1
    19    9   14 ar
    20    9   10 ar
    21   10   11 ar
    22   10   36 1
    23   11   12 ar
    24   11   37 1
    25   12   13 ar
    26   12   18 1
    27   13   14 ar
    28   13   15 1
    29   14   38 1
    30   15   16 2
    31   15   17 1
    32   18   19 2
    33   18   20 1
    34   21   22 1
    35   21   27 1
    36   21   28 1
    37   22   23 1
    38   22   39 1
    39   22   40 1
    40   23   24 1
    41   23   41 1
    42   23   42 1
    43   24   25 1
    44   24   26 1
    45   25   43 1
    46   25   44 1
    47   25   45 1
    48   26   46 1
    49   26   47 1
    50   26   48 1
    51   27   49 1
    52   27   50 1
    53   27   51 1
    54   28   52 1
    55   28   53 1
    56   28   54 1
@<TRIPOS>MOLECULE
CHEMBL64392
   60    63     0     0     0
SMALL
USER_CHARGES

@<TRIPOS>ATOM
      1 C1         -0.0184    1.5028    0.0103 C.3       1 <0>        -0.1075
      2 C2          0.0021   -0.0041    0.0020 C.2       1 <0>        -0.0493
      3 C3          0.0225   -0.6905    1.1763 C.2       1 <0>        -0.1190
      4 C4          0.0416   -2.0984    1.1686 C.2       1 <0>         0.4341
      5 O1          0.0397   -2.7584    0.0109 O.co2     1 <0>        -0.6754
      6 O2          0.0617   -2.7708    2.3189 O.co2     1 <0>        -0.7148
      7 C5         -0.0000   -0.7041   -1.2259 C.2       1 <0>         0.0420
      8 C6         -1.0089   -1.5275   -1.6926 C.2       1 <0>        -0.0951
      9 C7         -0.5863   -2.0010   -2.9349 C.2       1 <0>        -0.1565
     10 C8          0.6366   -1.4666   -3.1817 C.2       1 <0>        -0.0494
     11 O3          0.9806   -0.6836   -2.1555 O.3       1 <0>        -0.1636
     12 C9          1.4355   -1.7428   -4.4335 C.3       1 <0>        -0.0259
     13 C10         0.8553   -2.9881   -5.1139 C.3       1 <0>        -0.1136
     14 C11        -0.6617   -2.8357   -5.2543 C.3       1 <0>        -0.1079
     15 C12        -1.3143   -2.9328   -3.8696 C.3       1 <0>         0.0234
     16 C13        -2.7633   -2.5293   -3.9618 C.ar      1 <0>        -0.0570
     17 C14        -3.1052   -1.2722   -4.4251 C.ar      1 <0>        -0.1060
     18 C15        -4.4335   -0.9093   -4.5038 C.ar      1 <0>        -0.1202
     19 C16        -5.4317   -1.7970   -4.1228 C.ar      1 <0>        -0.0723
     20 C17        -5.0916   -3.0504   -3.6663 C.ar      1 <0>        -0.0614
     21 C18        -3.7533   -3.4148   -3.5898 C.ar      1 <0>        -0.1122
     22 C19        -6.1208   -4.0691   -3.2518 C.3       1 <0>        -0.0217
     23 C20        -7.4669   -3.3969   -2.9896 C.3       1 <0>        -0.1113
     24 C21        -7.8160   -2.5239   -4.2007 C.3       1 <0>        -0.1096
     25 C22        -6.8608   -1.3324   -4.2270 C.3       1 <0>        -0.0210
     26 C23        -7.0475   -0.5649   -5.5373 C.3       1 <0>        -0.1398
     27 C24        -7.1772   -0.4060   -3.0512 C.3       1 <0>        -0.1394
     28 C25        -6.2827   -5.1049   -4.3662 C.3       1 <0>        -0.1370
     29 C26        -5.6505   -4.7711   -1.9763 C.3       1 <0>        -0.1443
     30 H1          1.0042    1.8801    0.0026 H         1 <0>         0.0669
     31 H2         -0.5455    1.8639   -0.8728 H         1 <0>         0.0616
     32 H3         -0.5286    1.8543    0.9071 H         1 <0>         0.0661
     33 H4          0.0242   -0.1556    2.1145 H         1 <0>         0.1165
     34 H5         -1.9387   -1.7583   -1.1940 H         1 <0>         0.1271
     35 H6          1.3663   -0.8899   -5.1087 H         1 <0>         0.0736
     36 H7          2.4786   -1.9202   -4.1714 H         1 <0>         0.0746
     37 H8          1.3016   -3.1033   -6.1017 H         1 <0>         0.0705
     38 H9          1.0775   -3.8683   -4.5106 H         1 <0>         0.0698
     39 H10        -0.8902   -1.8661   -5.6966 H         1 <0>         0.0658
     40 H11        -1.0488   -3.6280   -5.8949 H         1 <0>         0.0643
     41 H12        -1.2402   -3.9555   -3.4997 H         1 <0>         0.0821
     42 H13        -2.3348   -0.5768   -4.7239 H         1 <0>         0.1165
     43 H14        -4.6997    0.0734   -4.8643 H         1 <0>         0.1161
     44 H15        -3.4855   -4.3978   -3.2314 H         1 <0>         0.1197
     45 H16        -8.2359   -4.1569   -2.8512 H         1 <0>         0.0642
     46 H17        -7.3992   -2.7757   -2.0966 H         1 <0>         0.0688
     47 H18        -7.7039   -3.1045   -5.1163 H         1 <0>         0.0670
     48 H19        -8.8430   -2.1692   -4.1137 H         1 <0>         0.0632
     49 H20        -6.8137   -1.2185   -6.3777 H         1 <0>         0.0548
     50 H21        -8.0808   -0.2269   -5.6164 H         1 <0>         0.0542
     51 H22        -6.3811    0.2975   -5.5514 H         1 <0>         0.0579
     52 H23        -6.5101    0.4556   -3.0777 H         1 <0>         0.0555
     53 H24        -8.2108   -0.0676   -3.1231 H         1 <0>         0.0544
     54 H25        -7.0360   -0.9460   -2.1149 H         1 <0>         0.0589
     55 H26        -5.3283   -5.6009   -4.5428 H         1 <0>         0.0559
     56 H27        -7.0269   -5.8441   -4.0699 H         1 <0>         0.0551
     57 H28        -6.6083   -4.6077   -5.2799 H         1 <0>         0.0559
     58 H29        -5.5243   -4.0353   -1.1821 H         1 <0>         0.0585
     59 H30        -6.3929   -5.5093   -1.6730 H         1 <0>         0.0552
     60 H31        -4.6993   -5.2688   -2.1650 H         1 <0>         0.0608
@<TRIPOS>BOND
     1    1    2 1
     2    1   30 1
     3    1   31 1
     4    1   32 1
     5    2    3 2
     6    2    7 1
     7    3    4 1
     8    3   33 1
     9    4    5 2
    10    4    6 1
    11    7   11 1
    12    7    8 2
    13    8    9 1
    14    8   34 1
    15    9   15 1
    16    9   10 2
    17   10   11 1
    18   10   12 1
    19   12   13 1
    20   12   35 1
    21   12   36 1
    22   13   14 1
    23   13   37 1
    24   13   38 1
    25   14   15 1
    26   14   39 1
    27   14   40 1
    28   15   16 1
    29   15   41 1
    30   16   21 ar
    31   16   17 ar
    32   17   18 ar
    33   17   42 1
    34   18   19 ar
    35   18   43 1
    36   19   25 1
    37   19   20 ar
    38   20   21 ar
    39   20   22 1
    40   21   44 1
    41   22   23 1
    42   22   28 1
    43   22   29 1
    44   23   24 1
    45   23   45 1
    46   23   46 1
    47   24   25 1
    48   24   47 1
    49   24   48 1
    50   25   26 1
    51   25   27 1
    52   26   49 1
    53   26   50 1
    54   26   51 1
    55   27   52 1
    56   27   53 1
    57   27   54 1
    58   28   55 1
    59   28   56 1
    60   28   57 1
    61   29   58 1
    62   29   59 1
    63   29   60 1
@<TRIPOS>MOLECULE
CHEMBL64392__1
   60    63     0     0     0
SMALL
USER_CHARGES

@<TRIPOS>ATOM
      1 C1         -0.0184    1.5028    0.0103 C.3       1 <0>        -0.1073
      2 C2          0.0021   -0.0041    0.0020 C.2       1 <0>        -0.0526
      3 C3          0.0225   -0.6905    1.1763 C.2       1 <0>        -0.1172
      4 C4          0.0416   -2.0984    1.1686 C.2       1 <0>         0.4318
      5 O1          0.0397   -2.7584    0.0109 O.co2     1 <0>        -0.6660
      6 O2          0.0617   -2.7708    2.3189 O.co2     1 <0>        -0.7165
      7 C5         -0.0000   -0.7041   -1.2259 C.2       1 <0>         0.0438
      8 C6         -1.0089   -1.5275   -1.6926 C.2       1 <0>        -0.0957
      9 C7         -0.5869   -1.9999   -2.9355 C.2       1 <0>        -0.1592
     10 C8          0.6349   -1.4635   -3.1835 C.2       1 <0>        -0.0497
     11 O3          0.9806   -0.6836   -2.1555 O.3       1 <0>        -0.1642
     12 C9          1.4295   -1.7319   -4.4397 C.3       1 <0>        -0.0274
     13 C10         0.4843   -2.3172   -5.4953 C.3       1 <0>        -0.1102
     14 C11        -0.3054   -3.4799   -4.8880 C.3       1 <0>        -0.1114
     15 C12        -1.3134   -2.9344   -3.8687 C.3       1 <0>         0.0288
     16 C13        -1.9087   -4.0745   -3.0834 C.ar      1 <0>        -0.0677
     17 C14        -1.0910   -4.9093   -2.3444 C.ar      1 <0>        -0.0699
     18 C15        -1.6431   -5.9526   -1.6307 C.ar      1 <0>        -0.1104
     19 C16        -3.0148   -6.1710   -1.6467 C.ar      1 <0>        -0.0676
     20 C17        -3.8295   -5.3367   -2.3783 C.ar      1 <0>        -0.0729
     21 C18        -3.2718   -4.2854   -3.0948 C.ar      1 <0>        -0.1193
     22 C19        -5.3256   -5.5041   -2.4286 C.3       1 <0>        -0.0193
     23 C20        -5.7256   -6.9032   -1.9646 C.3       1 <0>        -0.1083
     24 C21        -5.0504   -7.1773   -0.6157 C.3       1 <0>        -0.1110
     25 C22        -3.5493   -7.3330   -0.8511 C.3       1 <0>        -0.0205
     26 C23        -2.8306   -7.3939    0.4982 C.3       1 <0>        -0.1426
     27 C24        -3.2910   -8.6312   -1.6185 C.3       1 <0>        -0.1357
     28 C25        -5.8091   -5.2914   -3.8645 C.3       1 <0>        -0.1385
     29 C26        -5.9805   -4.4640   -1.5174 C.3       1 <0>        -0.1391
     30 H1          1.0042    1.8801    0.0026 H         1 <0>         0.0662
     31 H2         -0.5455    1.8639   -0.8728 H         1 <0>         0.0612
     32 H3         -0.5286    1.8543    0.9071 H         1 <0>         0.0655
     33 H4          0.0242   -0.1556    2.1145 H         1 <0>         0.1144
     34 H5         -1.9384   -1.7589   -1.1937 H         1 <0>         0.1270
     35 H6          1.8593   -0.8004   -4.8081 H         1 <0>         0.0723
     36 H7          2.2260   -2.4443   -4.2249 H         1 <0>         0.0759
     37 H8         -0.2074   -1.5449   -5.8315 H         1 <0>         0.0659
     38 H9          1.0661   -2.6775   -6.3438 H         1 <0>         0.0702
     39 H10        -0.8378   -4.0096   -5.6780 H         1 <0>         0.0642
     40 H11         0.3810   -4.1646   -4.3898 H         1 <0>         0.0686
     41 H12        -2.1043   -2.3931   -4.3879 H         1 <0>         0.0750
     42 H13        -0.0236   -4.7454   -2.3264 H         1 <0>         0.1174
     43 H14        -1.0035   -6.6052   -1.0549 H         1 <0>         0.1150
     44 H15        -3.9102   -3.6307   -3.6694 H         1 <0>         0.1129
     45 H16        -6.8084   -6.9565   -1.8506 H         1 <0>         0.0615
     46 H17        -5.3964   -7.6407   -2.6965 H         1 <0>         0.0661
     47 H18        -5.2311   -6.3426    0.0617 H         1 <0>         0.0685
     48 H19        -5.4514   -8.0944   -0.1841 H         1 <0>         0.0622
     49 H20        -3.0041   -6.4667    1.0444 H         1 <0>         0.0601
     50 H21        -3.2149   -8.2338    1.0769 H         1 <0>         0.0519
     51 H22        -1.7609   -7.5245    0.3345 H         1 <0>         0.0598
     52 H23        -2.2190   -8.7556   -1.7715 H         1 <0>         0.0547
     53 H24        -3.6765   -9.4747   -1.0457 H         1 <0>         0.0531
     54 H25        -3.7934   -8.5882   -2.5848 H         1 <0>         0.0551
     55 H26        -5.3374   -6.0242   -4.5190 H         1 <0>         0.0541
     56 H27        -6.8917   -5.4117   -3.9049 H         1 <0>         0.0525
     57 H28        -5.5427   -4.2866   -4.1924 H         1 <0>         0.0576
     58 H29        -5.7132   -3.4635   -1.8573 H         1 <0>         0.0553
     59 H30        -7.0636   -4.5819   -1.5510 H         1 <0>         0.0526
     60 H31        -5.6312   -4.6056   -0.4946 H         1 <0>         0.0590
@<TRIPOS>BOND
     1    1    2 1
     2    1   30 1
     3    1   31 1
     4    1   32 1
     5    2    3 2
     6    2    7 1
     7    3    4 1
     8    3   33 1
     9    4    5 2
    10    4    6 1
    11    7   11 1
    12    7    8 2
    13    8    9 1
    14    8   34 1
    15    9   15 1
    16    9   10 2
    17   10   11 1
    18   10   12 1
    19   12   13 1
    20   12   35 1
    21   12   36 1
    22   13   14 1
    23   13   37 1
    24   13   38 1
    25   14   15 1
    26   14   39 1
    27   14   40 1
    28   15   16 1
    29   15   41 1
    30   16   21 ar
    31   16   17 ar
    32   17   18 ar
    33   17   42 1
    34   18   19 ar
    35   18   43 1
    36   19   25 1
    37   19   20 ar
    38   20   21 ar
    39   20   22 1
    40   21   44 1
    41   22   23 1
    42   22   28 1
    43   22   29 1
    44   23   24 1
    45   23   45 1
    46   23   46 1
    47   24   25 1
    48   24   47 1
    49   24   48 1
    50   25   26 1
    51   25   27 1
    52   26   49 1
    53   26   50 1
    54   26   51 1
    55   27   52 1
    56   27   53 1
    57   27   54 1
    58   28   55 1
    59   28   56 1
    60   28   57 1
    61   29   58 1
    62   29   59 1
    63   29   60 1
@<TRIPOS>MOLECULE
CHEMBL208316
   65    66     0     0     0
SMALL
USER_CHARGES

@<TRIPOS>ATOM
      1 C1         -0.2970    1.7619   -0.1211 C.3       1 <0>        -0.1521
      2 C2         -0.0528    0.2659   -0.3290 C.3       1 <0>        -0.1446
      3 C3         -1.3784   -0.4886   -0.2096 C.3       1 <0>        -0.0138
      4 N1         -1.1440   -1.9250   -0.4092 N.4       1 <0>        -0.3229
      5 C4         -2.4300   -2.6350   -0.4138 C.3       1 <0>         0.0453
      6 C5         -3.2427   -2.1946   -1.6040 C.2       1 <0>        -0.2915
      7 C6         -3.7077   -3.1009   -2.4672 C.2       1 <0>         0.0067
      8 C7         -4.4961   -2.6737   -3.6218 C.2       1 <0>        -0.1415
      9 C8         -4.9680   -3.5936   -4.4979 C.2       1 <0>        -0.1172
     10 C9         -5.5962   -3.1744   -5.6930 C.2       1 <0>         0.4888
     11 O1         -5.6168   -1.9859   -5.9900 O.co2     1 <0>        -0.6735
     12 O2         -6.1200   -3.9997   -6.4318 O.co2     1 <0>        -0.6865
     13 C10        -4.7840   -1.2103   -3.8377 C.3       1 <0>        -0.0928
     14 C11        -0.3447   -2.4152    0.6278 C.ar      1 <0>        -0.0189
     15 C12        -0.7843   -2.3306    1.9348 C.ar      1 <0>        -0.0980
     16 C13         0.0051   -2.8150    2.9606 C.ar      1 <0>        -0.0429
     17 C14         1.2321   -3.3830    2.6770 C.ar      1 <0>        -0.0620
     18 C15         1.6745   -3.4683    1.3679 C.ar      1 <0>        -0.0526
     19 C16         0.8822   -2.9891    0.3411 C.ar      1 <0>        -0.0795
     20 C17         1.5788   -3.2038   -0.9855 C.3       1 <0>        -0.0995
     21 C18         3.0564   -3.4701   -0.6275 C.3       1 <0>        -0.1099
     22 C19         2.9585   -4.0355    0.8013 C.3       1 <0>        -0.0275
     23 C20         2.8858   -5.5628    0.7472 C.3       1 <0>        -0.1406
     24 C21         4.1539   -3.5894    1.6455 C.3       1 <0>        -0.1430
     25 C22        -0.4719   -2.7233    4.3872 C.3       1 <0>        -0.0300
     26 C23        -1.8490   -2.0575    4.4226 C.3       1 <0>        -0.1512
     27 C24        -0.5695   -4.1289    4.9837 C.3       1 <0>        -0.1437
     28 C25         0.5184   -1.8905    5.2036 C.3       1 <0>        -0.1429
     29 H1          0.6475    2.2995   -0.2062 H         1 <0>         0.0732
     30 H2         -0.9914    2.1254   -0.8786 H         1 <0>         0.0682
     31 H3         -0.7209    1.9267    0.8695 H         1 <0>         0.0637
     32 H4          0.3711    0.1011   -1.3195 H         1 <0>         0.0823
     33 H5          0.6417   -0.0976    0.4285 H         1 <0>         0.0829
     34 H6         -1.8023   -0.3239    0.7810 H         1 <0>         0.1250
     35 H7         -2.0729   -0.1251   -0.9670 H         1 <0>         0.1373
     36 H8         -2.2520   -3.7088   -0.4727 H         1 <0>         0.1244
     37 H9         -2.9744   -2.4067    0.5025 H         1 <0>         0.1268
     38 H10        -3.4490   -1.1458   -1.7587 H         1 <0>         0.1391
     39 H11        -3.5013   -4.1497   -2.3124 H         1 <0>         0.1179
     40 H12        -4.8642   -4.6469   -4.2832 H         1 <0>         0.1045
     41 H13        -4.0470   -0.7923   -4.5234 H         1 <0>         0.0639
     42 H14        -5.7815   -1.0949   -4.2619 H         1 <0>         0.0971
     43 H15        -4.7319   -0.6851   -2.8840 H         1 <0>         0.0287
     44 H16        -1.7436   -1.8860    2.1547 H         1 <0>         0.1475
     45 H17         1.8483   -3.7614    3.4792 H         1 <0>         0.1375
     46 H18         1.1535   -4.0649   -1.5010 H         1 <0>         0.0974
     47 H19         1.4949   -2.3114   -1.6056 H         1 <0>         0.0823
     48 H20         3.4950   -4.1988   -1.3092 H         1 <0>         0.0911
     49 H21         3.6288   -2.5425   -0.6295 H         1 <0>         0.0816
     50 H22         2.0528   -5.8646    0.1123 H         1 <0>         0.0590
     51 H23         3.8160   -5.9565    0.3377 H         1 <0>         0.0696
     52 H24         2.7368   -5.9553    1.7531 H         1 <0>         0.0607
     53 H25         4.0290   -3.9444    2.6685 H         1 <0>         0.0606
     54 H26         5.0702   -4.0049    1.2261 H         1 <0>         0.0680
     55 H27         4.2143   -2.5010    1.6435 H         1 <0>         0.0599
     56 H28        -2.5545   -2.6508    3.8410 H         1 <0>         0.0601
     57 H29        -2.1941   -1.9912    5.4544 H         1 <0>         0.0698
     58 H30        -1.7795   -1.0561    3.9977 H         1 <0>         0.0591
     59 H31         0.4115   -4.6032    4.9584 H         1 <0>         0.0599
     60 H32        -0.9146   -4.0625    6.0155 H         1 <0>         0.0680
     61 H33        -1.2751   -4.7222    4.4020 H         1 <0>         0.0596
     62 H34         0.5879   -0.8891    4.7786 H         1 <0>         0.0587
     63 H35         0.1733   -1.8241    6.2354 H         1 <0>         0.0678
     64 H36         1.4994   -2.3648    5.1783 H         1 <0>         0.0599
     65 H37        -0.6765   -2.0701   -1.2915 H         1 <0>         0.4246
@<TRIPOS>BOND
     1    1    2 1
     2    1   29 1
     3    1   30 1
     4    1   31 1
     5    2    3 1
     6    2   32 1
     7    2   33 1
     8    3    4 1
     9    3   34 1
    10    3   35 1
    11    4    5 1
    12    4   14 1
    13    4   65 1
    14    5    6 1
    15    5   36 1
    16    5   37 1
    17    6    7 2
    18    6   38 1
    19    7    8 1
    20    7   39 1
    21    8    9 2
    22    8   13 1
    23    9   10 1
    24    9   40 1
    25   10   11 2
    26   10   12 1
    27   13   41 1
    28   13   42 1
    29   13   43 1
    30   14   19 ar
    31   14   15 ar
    32   15   16 ar
    33   15   44 1
    34   16   17 ar
    35   16   25 1
    36   17   18 ar
    37   17   45 1
    38   18   22 1
    39   18   19 ar
    40   19   20 1
    41   20   21 1
    42   20   46 1
    43   20   47 1
    44   21   22 1
    45   21   48 1
    46   21   49 1
    47   22   23 1
    48   22   24 1
    49   23   50 1
    50   23   51 1
    51   23   52 1
    52   24   53 1
    53   24   54 1
    54   24   55 1
    55   25   26 1
    56   25   27 1
    57   25   28 1
    58   26   56 1
    59   26   57 1
    60   26   58 1
    61   27   59 1
    62   27   60 1
    63   27   61 1
    64   28   62 1
    65   28   63 1
    66   28   64 1
@<TRIPOS>MOLECULE
CHEMBL208316__1
   64    65     0     0     0
SMALL
USER_CHARGES

@<TRIPOS>ATOM
      1 C1         -0.1306    1.3543   -0.2831 C.3       1 <0>        -0.1498
      2 C2         -0.2468   -0.1646   -0.4265 C.3       1 <0>        -0.1433
      3 C3         -1.6925   -0.5923   -0.1663 C.3       1 <0>         0.1478
      4 N1         -1.8038   -2.0466   -0.3035 N.pl3     1 <0>        -0.6703
      5 C4         -1.5969   -2.9103    0.8616 C.3       1 <0>         0.1800
      6 C5         -2.9119   -3.1290    1.5645 C.2       1 <0>        -0.1891
      7 C6         -3.3508   -4.3700    1.7886 C.2       1 <0>        -0.0958
      8 C7         -4.6265   -4.5822    2.4704 C.2       1 <0>        -0.0903
      9 C8         -5.0719   -5.8418    2.6979 C.2       1 <0>        -0.1841
     10 C9         -6.3707   -6.0494    3.2159 C.2       1 <0>         0.5000
     11 O1         -7.1333   -5.1007    3.3561 O.co2     1 <0>        -0.6860
     12 O2         -6.7338   -7.1781    3.5248 O.co2     1 <0>        -0.7065
     13 C10        -5.4461   -3.4004    2.9204 C.3       1 <0>        -0.0908
     14 C11        -2.1070   -2.6097   -1.5452 C.ar      1 <0>         0.1857
     15 C12        -1.0842   -2.9601   -2.4161 C.ar      1 <0>        -0.1274
     16 C13        -1.3868   -3.5171   -3.6428 C.ar      1 <0>        -0.0726
     17 C14        -2.7051   -3.7245   -4.0017 C.ar      1 <0>        -0.1046
     18 C15        -3.7295   -3.3768   -3.1366 C.ar      1 <0>        -0.0781
     19 C16        -3.4334   -2.8243   -1.9057 C.ar      1 <0>        -0.0900
     20 C17        -4.7137   -2.5407   -1.1499 C.3       1 <0>        -0.0736
     21 C18        -5.8289   -2.5782   -2.2164 C.3       1 <0>        -0.1146
     22 C19        -5.2300   -3.5005   -3.2943 C.3       1 <0>        -0.0235
     23 C20        -5.6731   -4.9433   -3.0434 C.3       1 <0>        -0.1362
     24 C21        -5.6559   -3.0487   -4.6927 C.3       1 <0>        -0.1348
     25 C22        -0.2791   -3.8986   -4.5907 C.3       1 <0>        -0.0247
     26 C23         1.0727   -3.5665   -3.9556 C.3       1 <0>        -0.1416
     27 C24        -0.3510   -5.3989   -4.8818 C.3       1 <0>        -0.1380
     28 C25        -0.4343   -3.1176   -5.8972 C.3       1 <0>        -0.1365
     29 H1          0.8994    1.6590   -0.4685 H         1 <0>         0.0511
     30 H2         -0.7883    1.8387   -1.0048 H         1 <0>         0.0519
     31 H3         -0.4201    1.6472    0.7261 H         1 <0>         0.0535
     32 H4          0.0428   -0.4575   -1.4357 H         1 <0>         0.0592
     33 H5          0.4109   -0.6490    0.2953 H         1 <0>         0.0596
     34 H6         -1.9821   -0.2994    0.8429 H         1 <0>         0.0638
     35 H7         -2.3502   -0.1079   -0.8880 H         1 <0>         0.0580
     36 H8         -1.1950   -3.8697    0.5360 H         1 <0>         0.0617
     37 H9         -0.8939   -2.4352    1.5458 H         1 <0>         0.0689
     38 H10        -3.4993   -2.2821    1.8869 H         1 <0>         0.1125
     39 H11        -2.7634   -5.2170    1.4661 H         1 <0>         0.1026
     40 H12        -4.4346   -6.6869    2.4834 H         1 <0>         0.0936
     41 H13        -6.1948   -3.1680    2.1630 H         1 <0>         0.0596
     42 H14        -5.9428   -3.6395    3.8608 H         1 <0>         0.0894
     43 H15        -4.7938   -2.5389    3.0629 H         1 <0>         0.0283
     44 H16        -0.0543   -2.7970   -2.1350 H         1 <0>         0.1240
     45 H17        -2.9380   -4.1598   -4.9622 H         1 <0>         0.1124
     46 H18        -4.8857   -3.3085   -0.3957 H         1 <0>         0.0863
     47 H19        -4.6682   -1.5559   -0.6848 H         1 <0>         0.0681
     48 H20        -6.7456   -2.9997   -1.8039 H         1 <0>         0.0778
     49 H21        -6.0080   -1.5836   -2.6250 H         1 <0>         0.0669
     50 H22        -5.3962   -5.2375   -2.0310 H         1 <0>         0.0609
     51 H23        -6.7543   -5.0169   -3.1603 H         1 <0>         0.0591
     52 H24        -5.1844   -5.6033   -3.7601 H         1 <0>         0.0528
     53 H25        -5.1669   -3.6727   -5.4407 H         1 <0>         0.0534
     54 H26        -6.7373   -3.1432   -4.7914 H         1 <0>         0.0568
     55 H27        -5.3670   -2.0084   -4.8421 H         1 <0>         0.0540
     56 H28         1.1832   -4.1229   -3.0248 H         1 <0>         0.0579
     57 H29         1.8739   -3.8424   -4.6412 H         1 <0>         0.0547
     58 H30         1.1239   -2.4977   -3.7482 H         1 <0>         0.0568
     59 H31        -1.3140   -5.6355   -5.3343 H         1 <0>         0.0563
     60 H32         0.4502   -5.6748   -5.5674 H         1 <0>         0.0551
     61 H33        -0.2404   -5.9553   -3.9511 H         1 <0>         0.0564
     62 H34        -0.3831   -2.0487   -5.6898 H         1 <0>         0.0547
     63 H35         0.3669   -3.3935   -6.5828 H         1 <0>         0.0549
     64 H36        -1.3973   -3.3542   -6.3497 H         1 <0>         0.0560
@<TRIPOS>BOND
     1    1    2 1
     2    1   29 1
     3    1   30 1
     4    1   31 1
     5    2    3 1
     6    2   32 1
     7    2   33 1
     8    3    4 1
     9    3   34 1
    10    3   35 1
    11    4    5 1
    12    4   14 1
    13    5    6 1
    14    5   36 1
    15    5   37 1
    16    6    7 2
    17    6   38 1
    18    7    8 1
    19    7   39 1
    20    8    9 2
    21    8   13 1
    22    9   10 1
    23    9   40 1
    24   10   11 2
    25   10   12 1
    26   13   41 1
    27   13   42 1
    28   13   43 1
    29   14   19 ar
    30   14   15 ar
    31   15   16 ar
    32   15   44 1
    33   16   17 ar
    34   16   25 1
    35   17   18 ar
    36   17   45 1
    37   18   22 1
    38   18   19 ar
    39   19   20 1
    40   20   21 1
    41   20   46 1
    42   20   47 1
    43   21   22 1
    44   21   48 1
    45   21   49 1
    46   22   23 1
    47   22   24 1
    48   23   50 1
    49   23   51 1
    50   23   52 1
    51   24   53 1
    52   24   54 1
    53   24   55 1
    54   25   26 1
    55   25   27 1
    56   25   28 1
    57   26   56 1
    58   26   57 1
    59   26   58 1
    60   27   59 1
    61   27   60 1
    62   27   61 1
    63   28   62 1
    64   28   63 1
    65   28   64 1
@<TRIPOS>MOLECULE
CHEMBL208529
   67    68     0     0     0
SMALL
USER_CHARGES

@<TRIPOS>ATOM
      1 C1         -0.7778    1.3562    0.0881 C.3       1 <0>        -0.0899
      2 C2         -0.2263   -0.0448    0.0255 C.2       1 <0>        -0.0951
      3 C3          0.1247   -0.6865    1.1664 C.2       1 <0>        -0.1772
      4 C4          0.1271    0.0097    2.3968 C.2       1 <0>         0.4990
      5 O1         -0.0733    1.2182    2.4172 O.co2     1 <0>        -0.6856
      6 O2          0.3295   -0.5956    3.4427 O.co2     1 <0>        -0.7049
      7 C5         -0.0700   -0.7119   -1.2660 C.2       1 <0>        -0.0815
      8 C6         -0.4159   -0.0797   -2.3901 C.2       1 <0>        -0.2005
      9 C7         -0.2548   -0.7673   -3.7214 C.3       1 <0>         0.1602
     10 N1         -1.5367   -0.7648   -4.4305 N.pl3     1 <0>        -0.6148
     11 C8         -1.8785    0.3463   -5.3221 C.3       1 <0>         0.1616
     12 C9         -1.3950    0.0389   -6.7160 C.ar      1 <0>        -0.1012
     13 C10        -0.1228    0.4147   -7.1049 C.ar      1 <0>        -0.1062
     14 C11         0.3207    0.1327   -8.3834 C.ar      1 <0>        -0.1222
     15 C12        -0.5078   -0.5255   -9.2729 C.ar      1 <0>        -0.1209
     16 C13        -1.7796   -0.9022   -8.8837 C.ar      1 <0>        -0.1220
     17 C14        -2.2216   -0.6240   -7.6038 C.ar      1 <0>        -0.1048
     18 C15        -2.4331   -1.8218   -4.2566 C.ar      1 <0>         0.2274
     19 C16        -3.6465   -1.8238   -4.9328 C.ar      1 <0>        -0.2054
     20 C17        -4.5303   -2.8707   -4.7589 C.ar      1 <0>        -0.0264
     21 C18        -4.2086   -3.9159   -3.9125 C.ar      1 <0>        -0.1691
     22 C19        -3.0014   -3.9170   -3.2379 C.ar      1 <0>        -0.0202
     23 C20        -2.1106   -2.8761   -3.4116 C.ar      1 <0>        -0.1935
     24 C21        -2.6552   -5.0582   -2.3166 C.3       1 <0>        -0.0286
     25 C22        -2.6372   -6.3665   -3.1097 C.3       1 <0>        -0.1344
     26 C23        -1.2756   -4.8160   -1.7009 C.3       1 <0>        -0.1457
     27 C24        -3.7011   -5.1507   -1.2038 C.3       1 <0>        -0.1375
     28 C25        -5.8470   -2.8738   -5.4920 C.3       1 <0>        -0.0273
     29 C26        -5.9536   -1.6144   -6.3542 C.3       1 <0>        -0.1431
     30 C27        -5.9299   -4.1126   -6.3861 C.3       1 <0>        -0.1357
     31 C28        -6.9941   -2.8976   -4.4799 C.3       1 <0>        -0.1373
     32 H1          0.0455    2.0689    0.1371 H         1 <0>         0.0612
     33 H2         -1.3751    1.5517   -0.8024 H         1 <0>         0.0290
     34 H3         -1.4027    1.4614    0.9750 H         1 <0>         0.0874
     35 H4          0.4026   -1.7296    1.1356 H         1 <0>         0.0955
     36 H5          0.3252   -1.7160   -1.3109 H         1 <0>         0.1052
     37 H6         -0.8111    0.9244   -2.3452 H         1 <0>         0.1161
     38 H7          0.4902   -0.2383   -4.3157 H         1 <0>         0.0764
     39 H8          0.0705   -1.7954   -3.5623 H         1 <0>         0.0752
     40 H9         -2.9598    0.4828   -5.3345 H         1 <0>         0.0818
     41 H10        -1.4011    1.2588   -4.9650 H         1 <0>         0.0835
     42 H11         0.5244    0.9290   -6.4100 H         1 <0>         0.1203
     43 H12         1.3143    0.4270   -8.6875 H         1 <0>         0.1198
     44 H13        -0.1616   -0.7452  -10.2720 H         1 <0>         0.1183
     45 H14        -2.4270   -1.4162   -9.5787 H         1 <0>         0.1189
     46 H15        -3.2139   -0.9216   -7.2985 H         1 <0>         0.1230
     47 H16        -3.8987   -1.0075   -5.5934 H         1 <0>         0.1231
     48 H17        -4.9018   -4.7331   -3.7778 H         1 <0>         0.1115
     49 H18        -1.1661   -2.8798   -2.8879 H         1 <0>         0.1258
     50 H19        -1.8920   -6.3006   -3.9024 H         1 <0>         0.0537
     51 H20        -2.3867   -7.1919   -2.4433 H         1 <0>         0.0554
     52 H21        -3.6200   -6.5391   -3.5483 H         1 <0>         0.0549
     53 H22        -1.2884   -3.8840   -1.1359 H         1 <0>         0.0630
     54 H23        -1.0251   -5.6414   -1.0345 H         1 <0>         0.0564
     55 H24        -0.5304   -4.7501   -2.4937 H         1 <0>         0.0550
     56 H25        -4.6840   -5.3233   -1.6424 H         1 <0>         0.0545
     57 H26        -3.4507   -5.9761   -0.5374 H         1 <0>         0.0561
     58 H27        -3.7140   -4.2187   -0.6388 H         1 <0>         0.0591
     59 H28        -5.1363   -1.5975   -7.0752 H         1 <0>         0.0558
     60 H29        -6.9059   -1.6167   -6.8844 H         1 <0>         0.0551
     61 H30        -5.8945   -0.7319   -5.7172 H         1 <0>         0.0581
     62 H31        -5.8540   -5.0098   -5.7719 H         1 <0>         0.0567
     63 H32        -6.8823   -4.1148   -6.9164 H         1 <0>         0.0542
     64 H33        -5.1127   -4.0956   -7.1072 H         1 <0>         0.0545
     65 H34        -6.9350   -2.0151   -3.8429 H         1 <0>         0.0566
     66 H35        -7.9465   -2.8999   -5.0101 H         1 <0>         0.0543
     67 H36        -6.9182   -3.7949   -3.8656 H         1 <0>         0.0571
@<TRIPOS>BOND
     1    1    2 1
     2    1   32 1
     3    1   33 1
     4    1   34 1
     5    2    3 2
     6    2    7 1
     7    3    4 1
     8    3   35 1
     9    4    5 2
    10    4    6 1
    11    7    8 2
    12    7   36 1
    13    8    9 1
    14    8   37 1
    15    9   10 1
    16    9   38 1
    17    9   39 1
    18   10   11 1
    19   10   18 1
    20   11   12 1
    21   11   40 1
    22   11   41 1
    23   12   17 ar
    24   12   13 ar
    25   13   14 ar
    26   13   42 1
    27   14   15 ar
    28   14   43 1
    29   15   16 ar
    30   15   44 1
    31   16   17 ar
    32   16   45 1
    33   17   46 1
    34   18   23 ar
    35   18   19 ar
    36   19   20 ar
    37   19   47 1
    38   20   21 ar
    39   20   28 1
    40   21   22 ar
    41   21   48 1
    42   22   23 ar
    43   22   24 1
    44   23   49 1
    45   24   25 1
    46   24   26 1
    47   24   27 1
    48   25   50 1
    49   25   51 1
    50   25   52 1
    51   26   53 1
    52   26   54 1
    53   26   55 1
    54   27   56 1
    55   27   57 1
    56   27   58 1
    57   28   29 1
    58   28   30 1
    59   28   31 1
    60   29   59 1
    61   29   60 1
    62   29   61 1
    63   30   62 1
    64   30   63 1
    65   30   64 1
    66   31   65 1
    67   31   66 1
    68   31   67 1
@<TRIPOS>MOLECULE
CHEMBL705
   49    49     0     0     0
SMALL
USER_CHARGES

@<TRIPOS>ATOM
      1 C1         -2.1403   -2.1286   -2.0604 C.3       1 <0>        -0.1245
      2 C2         -0.9727   -2.0739   -1.1091 C.2       1 <0>        -0.1129
      3 C3         -0.9348   -1.0922   -0.2237 C.2       1 <0>        -0.0907
      4 C4          0.1717   -0.9136    0.7747 C.3       1 <0>        -0.0176
      5 C5          0.9760   -2.2085    0.9067 C.3       1 <0>        -0.1106
      6 C6          1.3553   -2.6920   -0.4984 C.3       1 <0>        -0.1204
      7 C7          0.0785   -3.1400   -1.2161 C.3       1 <0>        -0.0819
      8 C8         -0.4263   -0.5472    2.1345 C.3       1 <0>        -0.1381
      9 C9          1.0969    0.2131    0.3104 C.3       1 <0>        -0.1367
     10 C10        -1.9989   -0.1556   -0.2175 C.2       1 <0>        -0.1221
     11 C11        -3.2775   -0.5809   -0.0407 C.2       1 <0>        -0.1037
     12 C12        -4.3225    0.3546    0.0550 C.2       1 <0>        -0.1163
     13 C13        -5.6067   -0.0726    0.2326 C.2       1 <0>        -0.0923
     14 C14        -5.8834   -1.4441    0.3196 C.2       1 <0>        -0.1580
     15 C15        -7.1787   -1.8749    0.4988 C.2       1 <0>        -0.0749
     16 C16        -7.4552   -3.2452    0.5857 C.2       1 <0>        -0.0835
     17 C17        -8.7503   -3.6760    0.7648 C.2       1 <0>        -0.1321
     18 C18        -9.0115   -5.0348    1.0038 C.2       1 <0>         0.4387
     19 O1         -8.0008   -5.8874    1.1796 O.co2     1 <0>        -0.6899
     20 O2        -10.2703   -5.4730    1.0550 O.co2     1 <0>        -0.7144
     21 C19        -6.3349   -4.2479    0.4831 C.3       1 <0>        -0.1004
     22 C20        -4.0250    1.8289   -0.0385 C.3       1 <0>        -0.1133
     23 H1         -1.9836   -2.9301   -2.7822 H         1 <0>         0.0553
     24 H2         -3.0564   -2.3176   -1.5007 H         1 <0>         0.0727
     25 H3         -2.2254   -1.1776   -2.5862 H         1 <0>         0.0643
     26 H4          1.8802   -2.0205    1.4857 H         1 <0>         0.0632
     27 H5          0.3706   -2.9665    1.4037 H         1 <0>         0.0655
     28 H6          1.8243   -1.8782   -1.0514 H         1 <0>         0.0655
     29 H7          2.0454   -3.5322   -0.4225 H         1 <0>         0.0627
     30 H8         -0.2918   -4.0593   -0.7623 H         1 <0>         0.0747
     31 H9          0.3022   -3.3228   -2.2671 H         1 <0>         0.0693
     32 H10        -1.0218   -1.3811    2.5062 H         1 <0>         0.0559
     33 H11         0.3773   -0.3322    2.8388 H         1 <0>         0.0525
     34 H12        -1.0605    0.3328    2.0273 H         1 <0>         0.0582
     35 H13         0.5282    1.1392    0.2273 H         1 <0>         0.0537
     36 H14         1.9012    0.3443    1.0343 H         1 <0>         0.0541
     37 H15         1.5204   -0.0417   -0.6611 H         1 <0>         0.0558
     38 H16        -1.7935    0.8960   -0.3533 H         1 <0>         0.1138
     39 H17        -3.4907   -1.6375    0.0264 H         1 <0>         0.1201
     40 H18        -6.4095    0.6460    0.3061 H         1 <0>         0.1118
     41 H19        -5.0806   -2.1627    0.2461 H         1 <0>         0.1227
     42 H20        -7.9815   -1.1563    0.5723 H         1 <0>         0.1127
     43 H21        -9.5654   -2.9688    0.7215 H         1 <0>         0.1096
     44 H22        -6.0017   -4.5241    1.4835 H         1 <0>         0.0657
     45 H23        -6.6891   -5.1362   -0.0400 H         1 <0>         0.0953
     46 H24        -5.5036   -3.8088   -0.0684 H         1 <0>         0.0323
     47 H25        -4.0813    2.1456   -1.0800 H         1 <0>         0.0639
     48 H26        -4.7546    2.3849    0.5502 H         1 <0>         0.0612
     49 H27        -3.0238    2.0227    0.3466 H         1 <0>         0.0630
@<TRIPOS>BOND
     1    1    2 1
     2    1   23 1
     3    1   24 1
     4    1   25 1
     5    2    7 1
     6    2    3 2
     7    3    4 1
     8    3   10 1
     9    4    5 1
    10    4    8 1
    11    4    9 1
    12    5    6 1
    13    5   26 1
    14    5   27 1
    15    6    7 1
    16    6   28 1
    17    6   29 1
    18    7   30 1
    19    7   31 1
    20    8   32 1
    21    8   33 1
    22    8   34 1
    23    9   35 1
    24    9   36 1
    25    9   37 1
    26   10   11 2
    27   10   38 1
    28   11   12 1
    29   11   39 1
    30   12   13 2
    31   12   22 1
    32   13   14 1
    33   13   40 1
    34   14   15 2
    35   14   41 1
    36   15   16 1
    37   15   42 1
    38   16   17 2
    39   16   21 1
    40   17   18 1
    41   17   43 1
    42   18   19 2
    43   18   20 1
    44   21   44 1
    45   21   45 1
    46   21   46 1
    47   22   47 1
    48   22   48 1
    49   22   49 1
@<TRIPOS>MOLECULE
CHEMBL289272
   53    56     0     0     0
SMALL
USER_CHARGES

@<TRIPOS>ATOM
      1 C1         -0.0184    1.5028    0.0103 C.3       1 <0>        -0.0752
      2 C2          0.0021   -0.0041    0.0020 C.2       1 <0>         0.0010
      3 C3         -1.0707   -0.8157    0.0025 C.2       1 <0>        -0.0173
      4 N1         -0.6291   -2.0826   -0.0064 N.2       1 <0>        -0.4371
      5 C4          0.6861   -2.0689   -0.0123 C.2       1 <0>         0.2619
      6 O1          1.0992   -0.7883   -0.0131 O.3       1 <0>        -0.1800
      7 C5          1.5575   -3.2526   -0.0220 C.2       1 <0>         0.0494
      8 C6          2.9207   -3.2433   -0.0227 C.2       1 <0>        -0.1485
      9 C7          3.3347   -4.5881   -0.0334 C.2       1 <0>        -0.2153
     10 C8          2.2191   -5.3461   -0.0387 C.2       1 <0>        -0.0061
     11 O2          1.1482   -4.5370   -0.0259 O.3       1 <0>        -0.1470
     12 C9         -2.5131   -0.3793    0.0114 C.3       1 <0>         0.1461
     13 O3         -2.9751   -0.2341   -1.3330 O.3       1 <0>        -0.2977
     14 C10        -4.2664    0.1573   -1.5031 C.ar      1 <0>         0.0997
     15 C11        -5.0689    0.4017   -0.4003 C.ar      1 <0>        -0.1705
     16 C12        -6.3811    0.8000   -0.5751 C.ar      1 <0>        -0.1115
     17 C13        -6.8960    0.9549   -1.8488 C.ar      1 <0>        -0.0798
     18 C14        -6.1008    0.7123   -2.9533 C.ar      1 <0>        -0.1678
     19 C15        -4.7829    0.3188   -2.7851 C.ar      1 <0>         0.1047
     20 O4         -3.9975    0.0855   -3.8706 O.3       1 <0>        -0.3059
     21 C16        -4.5948    0.2714   -5.1555 C.3       1 <0>         0.0258
     22 C17        -8.3273    1.3888   -2.0335 C.3       1 <0>        -0.0770
     23 C18        -8.3930    2.9161   -2.0974 C.3       1 <0>        -0.1134
     24 C19        -9.8462    3.3566   -2.2849 C.3       1 <0>        -0.1205
     25 C20        -9.9119    4.8838   -2.3488 C.3       1 <0>         0.0398
     26 C21       -11.3457    5.3473   -2.5073 C.2       1 <0>         0.5068
     27 O5        -12.2654    5.1637   -1.7390 O.2       1 <0>        -0.4438
     28 N2        -11.3835    6.0078   -3.6826 N.am      1 <0>        -0.6855
     29 C22       -10.1769    6.0131   -4.2635 C.2       1 <0>         0.6503
     30 O6         -9.9422    6.5429   -5.3310 O.2       1 <0>        -0.4690
     31 O7         -9.2563    5.3665   -3.5312 O.3       1 <0>        -0.2935
     32 H1          1.0042    1.8801    0.0026 H         1 <0>         0.0858
     33 H2         -0.5455    1.8639   -0.8728 H         1 <0>         0.0987
     34 H3         -0.5286    1.8543    0.9071 H         1 <0>         0.0958
     35 H4          3.5593   -2.3724   -0.0163 H         1 <0>         0.1600
     36 H5          4.3537   -4.9459   -0.0371 H         1 <0>         0.1608
     37 H6          2.1920   -6.4257   -0.0471 H         1 <0>         0.2162
     38 H7         -3.1162   -1.1287    0.5240 H         1 <0>         0.0834
     39 H8         -2.6007    0.5749    0.5309 H         1 <0>         0.0831
     40 H9         -4.6694    0.2808    0.5957 H         1 <0>         0.1354
     41 H10        -7.0056    0.9902    0.2853 H         1 <0>         0.1281
     42 H11        -6.5055    0.8337   -3.9472 H         1 <0>         0.1352
     43 H12        -3.8617    0.0527   -5.9319 H         1 <0>         0.1007
     44 H13        -5.4468   -0.4001   -5.2607 H         1 <0>         0.0550
     45 H14        -4.9312    1.3035   -5.2538 H         1 <0>         0.0559
     46 H15        -8.7173    0.9693   -2.9609 H         1 <0>         0.0738
     47 H16        -8.9257    1.0341   -1.1943 H         1 <0>         0.0776
     48 H17        -8.0030    3.3356   -1.1700 H         1 <0>         0.0739
     49 H18        -7.7946    3.2707   -2.9366 H         1 <0>         0.0762
     50 H19       -10.2362    2.9370   -3.2123 H         1 <0>         0.0814
     51 H20       -10.4446    3.0019   -1.4457 H         1 <0>         0.1025
     52 H21        -9.4631    5.3220   -1.4573 H         1 <0>         0.1535
     53 H22       -12.1769    6.4222   -4.0565 H         1 <0>         0.4438
@<TRIPOS>BOND
     1    1    2 1
     2    1   32 1
     3    1   33 1
     4    1   34 1
     5    2    6 1
     6    2    3 2
     7    3    4 1
     8    3   12 1
     9    4    5 2
    10    5    6 1
    11    5    7 1
    12    7   11 1
    13    7    8 2
    14    8    9 1
    15    8   35 1
    16    9   10 2
    17    9   36 1
    18   10   11 1
    19   10   37 1
    20   12   13 1
    21   12   38 1
    22   12   39 1
    23   13   14 1
    24   14   19 ar
    25   14   15 ar
    26   15   16 ar
    27   15   40 1
    28   16   17 ar
    29   16   41 1
    30   17   18 ar
    31   17   22 1
    32   18   19 ar
    33   18   42 1
    34   19   20 1
    35   20   21 1
    36   21   43 1
    37   21   44 1
    38   21   45 1
    39   22   23 1
    40   22   46 1
    41   22   47 1
    42   23   24 1
    43   23   48 1
    44   23   49 1
    45   24   25 1
    46   24   50 1
    47   24   51 1
    48   25   31 1
    49   25   26 1
    50   25   52 1
    51   26   27 2
    52   26   28 am
    53   28   29 am
    54   28   53 1
    55   29   30 2
    56   29   31 1
@<TRIPOS>MOLECULE
CHEMBL289272__1
   53    56     0     0     0
SMALL
USER_CHARGES

@<TRIPOS>ATOM
      1 C1         -0.0184    1.5028    0.0103 C.3       1 <0>        -0.0753
      2 C2          0.0021   -0.0041    0.0020 C.2       1 <0>         0.0011
      3 C3         -1.0707   -0.8157    0.0025 C.2       1 <0>        -0.0172
      4 N1         -0.6291   -2.0826   -0.0064 N.2       1 <0>        -0.4371
      5 C4          0.6861   -2.0689   -0.0123 C.2       1 <0>         0.2617
      6 O1          1.0992   -0.7883   -0.0131 O.3       1 <0>        -0.1801
      7 C5          1.5575   -3.2526   -0.0220 C.2       1 <0>         0.0496
      8 C6          2.9207   -3.2433   -0.0227 C.2       1 <0>        -0.1486
      9 C7          3.3347   -4.5881   -0.0334 C.2       1 <0>        -0.2153
     10 C8          2.2191   -5.3461   -0.0387 C.2       1 <0>        -0.0062
     11 O2          1.1482   -4.5370   -0.0259 O.3       1 <0>        -0.1470
     12 C9         -2.5131   -0.3793    0.0114 C.3       1 <0>         0.1458
     13 O3         -2.9751   -0.2341   -1.3330 O.3       1 <0>        -0.2977
     14 C10        -4.2664    0.1573   -1.5031 C.ar      1 <0>         0.0999
     15 C11        -5.0689    0.4017   -0.4003 C.ar      1 <0>        -0.1699
     16 C12        -6.3811    0.8000   -0.5751 C.ar      1 <0>        -0.1103
     17 C13        -6.8960    0.9549   -1.8488 C.ar      1 <0>        -0.0800
     18 C14        -6.1008    0.7123   -2.9533 C.ar      1 <0>        -0.1684
     19 C15        -4.7829    0.3188   -2.7851 C.ar      1 <0>         0.1039
     20 O4         -3.9975    0.0855   -3.8706 O.3       1 <0>        -0.3060
     21 C16        -4.5948    0.2714   -5.1555 C.3       1 <0>         0.0262
     22 C17        -8.3273    1.3888   -2.0335 C.3       1 <0>        -0.0770
     23 C18        -8.3930    2.9161   -2.0974 C.3       1 <0>        -0.1134
     24 C19        -9.8462    3.3566   -2.2849 C.3       1 <0>        -0.1205
     25 C20        -9.9119    4.8838   -2.3488 C.3       1 <0>         0.0399
     26 C21       -11.3393    5.3453   -2.5616 C.2       1 <0>         0.5068
     27 O5        -12.0572    5.0978   -3.5067 O.2       1 <0>        -0.4441
     28 N2        -11.6436    6.0887   -1.4782 N.am      1 <0>        -0.6854
     29 C22       -10.6049    6.1463   -0.6348 C.2       1 <0>         0.6504
     30 O6        -10.6201    6.7539    0.4168 O.2       1 <0>        -0.4688
     31 O7         -9.5449    5.4564   -1.0844 O.3       1 <0>        -0.2931
     32 H1          1.0042    1.8801    0.0026 H         1 <0>         0.0858
     33 H2         -0.5455    1.8639   -0.8728 H         1 <0>         0.0986
     34 H3         -0.5286    1.8543    0.9071 H         1 <0>         0.0960
     35 H4          3.5593   -2.3724   -0.0163 H         1 <0>         0.1600
     36 H5          4.3537   -4.9459   -0.0371 H         1 <0>         0.1607
     37 H6          2.1920   -6.4257   -0.0471 H         1 <0>         0.2162
     38 H7         -3.1162   -1.1287    0.5240 H         1 <0>         0.0835
     39 H8         -2.6007    0.5749    0.5309 H         1 <0>         0.0834
     40 H9         -4.6694    0.2808    0.5957 H         1 <0>         0.1356
     41 H10        -7.0056    0.9902    0.2853 H         1 <0>         0.1281
     42 H11        -6.5055    0.8337   -3.9472 H         1 <0>         0.1353
     43 H12        -3.8617    0.0527   -5.9319 H         1 <0>         0.1004
     44 H13        -5.4468   -0.4001   -5.2607 H         1 <0>         0.0551
     45 H14        -4.9312    1.3035   -5.2538 H         1 <0>         0.0550
     46 H15        -8.7173    0.9693   -2.9609 H         1 <0>         0.0748
     47 H16        -8.9257    1.0341   -1.1943 H         1 <0>         0.0766
     48 H17        -8.0030    3.3356   -1.1700 H         1 <0>         0.0780
     49 H18        -7.7946    3.2707   -2.9366 H         1 <0>         0.0721
     50 H19       -10.2362    2.9370   -3.2123 H         1 <0>         0.1018
     51 H20       -10.4446    3.0019   -1.4457 H         1 <0>         0.0822
     52 H21        -9.2646    5.2602   -3.1408 H         1 <0>         0.1531
     53 H22       -12.4983    6.5228   -1.3302 H         1 <0>         0.4438
@<TRIPOS>BOND
     1    1    2 1
     2    1   32 1
     3    1   33 1
     4    1   34 1
     5    2    6 1
     6    2    3 2
     7    3    4 1
     8    3   12 1
     9    4    5 2
    10    5    6 1
    11    5    7 1
    12    7   11 1
    13    7    8 2
    14    8    9 1
    15    8   35 1
    16    9   10 2
    17    9   36 1
    18   10   11 1
    19   10   37 1
    20   12   13 1
    21   12   38 1
    22   12   39 1
    23   13   14 1
    24   14   19 ar
    25   14   15 ar
    26   15   16 ar
    27   15   40 1
    28   16   17 ar
    29   16   41 1
    30   17   18 ar
    31   17   22 1
    32   18   19 ar
    33   18   42 1
    34   19   20 1
    35   20   21 1
    36   21   43 1
    37   21   44 1
    38   21   45 1
    39   22   23 1
    40   22   46 1
    41   22   47 1
    42   23   24 1
    43   23   48 1
    44   23   49 1
    45   24   25 1
    46   24   50 1
    47   24   51 1
    48   25   31 1
    49   25   26 1
    50   25   52 1
    51   26   27 2
    52   26   28 am
    53   28   29 am
    54   28   53 1
    55   29   30 2
    56   29   31 1
@<TRIPOS>MOLECULE
CHEMBL337719
   61    62     0     0     0
SMALL
USER_CHARGES

@<TRIPOS>ATOM
      1 C1          0.8804    1.1747   -0.9118 C.3       1 <0>        -0.1476
      2 C2          0.8126   -0.3280   -0.6323 C.3       1 <0>        -0.0556
      3 C3          1.7693   -1.0651   -1.5717 C.3       1 <0>        -0.1442
      4 C4          1.2100   -0.5915    0.7973 C.ar      1 <0>        -0.0669
      5 C5          2.4602   -0.2197    1.2409 C.ar      1 <0>        -0.0934
      6 C6          2.8301   -0.4641    2.5688 C.ar      1 <0>        -0.0218
      7 C7          1.9193   -1.0883    3.4384 C.ar      1 <0>         0.0902
      8 C8          0.6673   -1.4543    2.9726 C.ar      1 <0>        -0.0813
      9 C9          0.3142   -1.2014    1.6604 C.ar      1 <0>        -0.1047
     10 C10        -0.3139   -2.1243    3.8997 C.3       1 <0>        -0.0605
     11 C11        -1.5777   -1.2690    4.0094 C.3       1 <0>        -0.1466
     12 C12        -0.6779   -3.5036    3.3466 C.3       1 <0>        -0.1393
     13 O1          2.2650   -1.3316    4.7280 O.3       1 <0>        -0.3076
     14 C13         1.8919   -0.3490    5.6961 C.3       1 <0>         0.0165
     15 C14         2.4666   -0.7337    7.0609 C.3       1 <0>         0.4645
     16 F1          3.8615   -0.8000    6.9775 F         1 <0>        -0.1721
     17 F2          2.1013    0.2282    8.0087 F         1 <0>        -0.1725
     18 F3          1.9625   -1.9812    7.4443 F         1 <0>        -0.1775
     19 C15         4.1599   -0.0718    3.0494 C.2       1 <0>        -0.1115
     20 C16         4.5216    1.1903    3.3804 C.2       1 <0>        -0.0668
     21 C17         5.9631    1.2208    3.8335 C.3       1 <0>        -0.0933
     22 C18         6.3149   -0.2508    4.1459 C.3       1 <0>        -0.1200
     23 C19         5.3194   -1.0197    3.2517 C.3       1 <0>        -0.0749
     24 C20         3.6766    2.3130    3.3119 C.2       1 <0>        -0.1431
     25 C21         4.1456    3.5426    3.6707 C.2       1 <0>        -0.0704
     26 C22         3.3030    4.6619    3.6025 C.2       1 <0>        -0.0845
     27 C23         3.7725    5.8928    3.9616 C.2       1 <0>        -0.1304
     28 C24         2.8916    6.9846    4.0424 C.2       1 <0>         0.4392
     29 O2          1.5794    6.7946    3.9003 O.co2     1 <0>        -0.6899
     30 O3          3.3679    8.2108    4.2612 O.co2     1 <0>        -0.7138
     31 C25         1.8796    4.5060    3.1328 C.3       1 <0>        -0.0988
     32 H1          1.8976    1.5296   -0.7461 H         1 <0>         0.0593
     33 H2          0.5930    1.3653   -1.9458 H         1 <0>         0.0582
     34 H3          0.1988    1.6998   -0.2426 H         1 <0>         0.0593
     35 H4         -0.2046   -0.6829   -0.7980 H         1 <0>         0.0773
     36 H5          2.7865   -0.7102   -1.4060 H         1 <0>         0.0576
     37 H6          1.7211   -2.1356   -1.3726 H         1 <0>         0.0549
     38 H7          1.4819   -0.8745   -2.6057 H         1 <0>         0.0580
     39 H8          3.1537    0.2591    0.5654 H         1 <0>         0.1283
     40 H9         -0.6653   -1.4848    1.3045 H         1 <0>         0.1254
     41 H10         0.1363   -2.2357    4.8862 H         1 <0>         0.0826
     42 H11        -2.2873   -1.7537    4.6800 H         1 <0>         0.0598
     43 H12        -1.3183   -0.2864    4.4035 H         1 <0>         0.0556
     44 H13        -2.0278   -1.1577    3.0230 H         1 <0>         0.0590
     45 H14         0.2225   -4.1129    3.2684 H         1 <0>         0.0564
     46 H15        -1.3875   -3.9883    4.0171 H         1 <0>         0.0581
     47 H16        -1.1280   -3.3922    2.3601 H         1 <0>         0.0560
     48 H17         2.2846    0.6229    5.3974 H         1 <0>         0.1040
     49 H18         0.8050   -0.2973    5.7611 H         1 <0>         0.0983
     50 H19         6.6024    1.6024    3.0374 H         1 <0>         0.0774
     51 H20         6.0658    1.8333    4.7293 H         1 <0>         0.0735
     52 H21         7.3447   -0.4725    3.8659 H         1 <0>         0.0709
     53 H22         6.1420   -0.4772    5.1980 H         1 <0>         0.0716
     54 H23         4.9832   -1.9282    3.7514 H         1 <0>         0.0714
     55 H24         5.7823   -1.2617    2.2950 H         1 <0>         0.0711
     56 H25         2.6565    2.2013    2.9753 H         1 <0>         0.1214
     57 H26         5.1657    3.6543    4.0073 H         1 <0>         0.1134
     58 H27         4.8209    6.0272    4.1835 H         1 <0>         0.1089
     59 H28         1.2223    4.3961    3.9953 H         1 <0>         0.0644
     60 H29         1.5865    5.3876    2.5626 H         1 <0>         0.0948
     61 H30         1.8004    3.6216    2.5006 H         1 <0>         0.0318
@<TRIPOS>BOND
     1    1    2 1
     2    1   32 1
     3    1   33 1
     4    1   34 1
     5    2    3 1
     6    2    4 1
     7    2   35 1
     8    3   36 1
     9    3   37 1
    10    3   38 1
    11    4    9 ar
    12    4    5 ar
    13    5    6 ar
    14    5   39 1
    15    6    7 ar
    16    6   19 1
    17    7    8 ar
    18    7   13 1
    19    8    9 ar
    20    8   10 1
    21    9   40 1
    22   10   11 1
    23   10   12 1
    24   10   41 1
    25   11   42 1
    26   11   43 1
    27   11   44 1
    28   12   45 1
    29   12   46 1
    30   12   47 1
    31   13   14 1
    32   14   15 1
    33   14   48 1
    34   14   49 1
    35   15   16 1
    36   15   17 1
    37   15   18 1
    38   19   23 1
    39   19   20 2
    40   20   21 1
    41   20   24 1
    42   21   22 1
    43   21   50 1
    44   21   51 1
    45   22   23 1
    46   22   52 1
    47   22   53 1
    48   23   54 1
    49   23   55 1
    50   24   25 2
    51   24   56 1
    52   25   26 1
    53   25   57 1
    54   26   27 2
    55   26   31 1
    56   27   28 1
    57   27   58 1
    58   28   29 2
    59   28   30 1
    60   31   59 1
    61   31   60 1
    62   31   61 1
@<TRIPOS>MOLECULE
CHEMBL32505
   56    58     0     0     0
SMALL
USER_CHARGES

@<TRIPOS>ATOM
      1 C1          0.2303    1.0841   -0.3100 C.3       1 <0>        -0.1169
      2 C2         -0.0679   -0.3679   -0.0385 C.ar      1 <0>        -0.0741
      3 C3         -0.2527   -1.2439   -1.0836 C.ar      1 <0>        -0.1208
      4 C4         -0.5260   -2.5867   -0.8470 C.ar      1 <0>        -0.0625
      5 C5         -0.6112   -3.0540    0.4478 C.ar      1 <0>        -0.0674
      6 C6         -0.4311   -2.1814    1.5089 C.ar      1 <0>        -0.1014
      7 C7         -0.1527   -0.8344    1.2763 C.ar      1 <0>        -0.0406
      8 C8          0.0448    0.0895    2.4067 C.2       1 <0>        -0.0941
      9 C9          1.1919    0.0593    3.1070 C.2       1 <0>        -0.0900
     10 C10         1.3287    0.8659    4.3301 C.ar      1 <0>        -0.0763
     11 C11         0.2622    0.9558    5.2322 C.ar      1 <0>        -0.1216
     12 C12         0.3893    1.7037    6.3671 C.ar      1 <0>        -0.0901
     13 C13         1.5862    2.3807    6.6287 C.ar      1 <0>        -0.1254
     14 C14         2.6527    2.2908    5.7266 C.ar      1 <0>        -0.0891
     15 C15         2.5275    1.5386    4.5943 C.ar      1 <0>        -0.1219
     16 C16         1.7231    3.1879    7.8527 C.2       1 <0>         0.5170
     17 O1          0.7908    3.2668    8.6410 O.co2     1 <0>        -0.6876
     18 O2          2.7692    3.7796    8.0814 O.co2     1 <0>        -0.6877
     19 C17        -1.0391    1.0685    2.7781 C.3       1 <0>        -0.1121
     20 C18        -0.8880   -4.4992    0.7712 C.3       1 <0>        -0.0215
     21 C19        -1.4765   -5.2183   -0.4407 C.3       1 <0>        -0.1109
     22 C20        -0.5730   -4.9480   -1.6495 C.3       1 <0>        -0.1112
     23 C21        -0.7228   -3.4804   -2.0442 C.3       1 <0>        -0.0223
     24 C22        -2.1225   -3.2530   -2.6189 C.3       1 <0>        -0.1385
     25 C23         0.3207   -3.1351   -3.1085 C.3       1 <0>        -0.1416
     26 C24         0.4181   -5.1840    1.1788 C.3       1 <0>        -0.1397
     27 C25        -1.8802   -4.5749    1.9335 C.3       1 <0>        -0.1432
     28 H1          1.3085    1.2259   -0.3844 H         1 <0>         0.0689
     29 H2         -0.2410    1.3829   -1.2463 H         1 <0>         0.0614
     30 H3         -0.1609    1.6938    0.5045 H         1 <0>         0.0732
     31 H4         -0.1851   -0.8842   -2.0997 H         1 <0>         0.1193
     32 H5         -0.5027   -2.5472    2.5225 H         1 <0>         0.1227
     33 H6          2.0130   -0.5570    2.7719 H         1 <0>         0.1136
     34 H7         -0.6614    0.4337    5.0301 H         1 <0>         0.1175
     35 H8         -0.4337    1.7733    7.0629 H         1 <0>         0.1257
     36 H9          3.5760    2.8135    5.9283 H         1 <0>         0.1257
     37 H10         3.3519    1.4657    3.9005 H         1 <0>         0.1135
     38 H11        -1.6762    0.6309    3.5467 H         1 <0>         0.0683
     39 H12        -0.5868    1.9841    3.1590 H         1 <0>         0.0739
     40 H13        -1.6383    1.2985    1.8971 H         1 <0>         0.0568
     41 H14        -1.5192   -6.2901   -0.2467 H         1 <0>         0.0656
     42 H15        -2.4794   -4.8407   -0.6403 H         1 <0>         0.0681
     43 H16         0.4645   -5.1530   -1.3855 H         1 <0>         0.0684
     44 H17        -0.8731   -5.5846   -2.4819 H         1 <0>         0.0651
     45 H18        -2.2266   -2.2106   -2.9200 H         1 <0>         0.0552
     46 H19        -2.2687   -3.8979   -3.4854 H         1 <0>         0.0562
     47 H20        -2.8692   -3.4885   -1.8606 H         1 <0>         0.0580
     48 H21         1.3200   -3.2863   -2.7001 H         1 <0>         0.0561
     49 H22         0.1816   -3.7797   -3.9764 H         1 <0>         0.0562
     50 H23         0.2041   -2.0933   -3.4072 H         1 <0>         0.0582
     51 H24         0.8311   -4.6859    2.0560 H         1 <0>         0.0571
     52 H25         0.2220   -6.2301    1.4137 H         1 <0>         0.0568
     53 H26         1.1317   -5.1237    0.3571 H         1 <0>         0.0571
     54 H27        -2.8090   -4.0793    1.6511 H         1 <0>         0.0559
     55 H28        -2.0831   -5.6193    2.1706 H         1 <0>         0.0568
     56 H29        -1.4552   -4.0800    2.8067 H         1 <0>         0.0604
@<TRIPOS>BOND
     1    1    2 1
     2    1   28 1
     3    1   29 1
     4    1   30 1
     5    2    7 ar
     6    2    3 ar
     7    3    4 ar
     8    3   31 1
     9    4   23 1
    10    4    5 ar
    11    5    6 ar
    12    5   20 1
    13    6    7 ar
    14    6   32 1
    15    7    8 1
    16    8    9 2
    17    8   19 1
    18    9   10 1
    19    9   33 1
    20   10   15 ar
    21   10   11 ar
    22   11   12 ar
    23   11   34 1
    24   12   13 ar
    25   12   35 1
    26   13   14 ar
    27   13   16 1
    28   14   15 ar
    29   14   36 1
    30   15   37 1
    31   16   17 2
    32   16   18 1
    33   19   38 1
    34   19   39 1
    35   19   40 1
    36   20   21 1
    37   20   26 1
    38   20   27 1
    39   21   22 1
    40   21   41 1
    41   21   42 1
    42   22   23 1
    43   22   43 1
    44   22   44 1
    45   23   24 1
    46   23   25 1
    47   24   45 1
    48   24   46 1
    49   24   47 1
    50   25   48 1
    51   25   49 1
    52   25   50 1
    53   26   51 1
    54   26   52 1
    55   26   53 1
    56   27   54 1
    57   27   55 1
    58   27   56 1
@<TRIPOS>MOLECULE
CHEMBL120210
   58    60     0     0     0
SMALL
USER_CHARGES

@<TRIPOS>ATOM
      1 C1          2.0434   -1.3145    2.3759 C.3       1 <0>        -0.1529
      2 C2          1.1504   -1.1742    1.1415 C.3       1 <0>         0.0607
      3 O1          1.8140   -1.7355    0.0072 O.3       1 <0>        -0.3483
      4 C3          1.1577   -1.6923   -1.1688 C.2       1 <0>         0.5112
      5 O2          0.0522   -1.1919   -1.2295 O.2       1 <0>        -0.5018
      6 C4          1.7813   -2.2527   -2.3824 C.ar      1 <0>        -0.1292
      7 C5          3.0506   -2.8340   -2.3136 C.ar      1 <0>        -0.0424
      8 C6          3.6289   -3.3564   -3.4488 C.ar      1 <0>        -0.1393
      9 C7          2.9524   -3.3061   -4.6620 C.ar      1 <0>         0.1305
     10 C8          1.6901   -2.7289   -4.7349 C.ar      1 <0>        -0.1300
     11 C9          1.1023   -2.2089   -3.6033 C.ar      1 <0>        -0.0367
     12 O3          3.5263   -3.8218   -5.7788 O.3       1 <0>        -0.2968
     13 C10         3.6562   -5.1609   -5.8630 C.2       1 <0>         0.5171
     14 O4          3.1705   -5.8735   -5.0068 O.2       1 <0>        -0.4942
     15 C11         4.3872   -5.7607   -6.9932 C.ar      1 <0>        -0.1918
     16 C12         4.9519   -4.9420   -7.9766 C.ar      1 <0>        -0.0139
     17 C13         5.6266   -5.5017   -9.0227 C.ar      1 <0>        -0.2109
     18 C14         5.7577   -6.8867   -9.1168 C.ar      1 <0>         0.2659
     19 C15         5.2033   -7.7097   -8.1437 C.ar      1 <0>        -0.1574
     20 C16         4.5229   -7.1485   -7.0822 C.ar      1 <0>         0.0017
     21 C17         5.3366   -9.2084   -8.2112 C.3       1 <0>        -0.0132
     22 C18         5.6576   -9.6525   -9.6382 C.3       1 <0>        -0.1274
     23 C19         6.8521   -8.8388  -10.1530 C.3       1 <0>         0.1185
     24 N1          6.4482   -7.4273  -10.1991 N.pl3     1 <0>        -0.6126
     25 C20         6.7673   -6.6003  -11.3656 C.3       1 <0>         0.1376
     26 C21         8.2788   -6.6134  -11.6019 C.3       1 <0>        -0.1648
     27 C22         6.0535   -7.1597  -12.5979 C.3       1 <0>        -0.1648
     28 C23         6.4608   -9.6589   -7.2762 C.3       1 <0>        -0.1415
     29 C24         4.0234   -9.8536   -7.7640 C.3       1 <0>        -0.1432
     30 H1          2.2468   -2.3695    2.5592 H         1 <0>         0.0676
     31 H2          2.9824   -0.7874    2.2068 H         1 <0>         0.0675
     32 H3          1.5372   -0.8863    3.2411 H         1 <0>         0.0814
     33 H4          0.2113   -1.7013    1.3106 H         1 <0>         0.0696
     34 H5          0.9469   -0.1192    0.9582 H         1 <0>         0.0697
     35 H6          3.5770   -2.8732   -1.3714 H         1 <0>         0.1473
     36 H7          4.6098   -3.8055   -3.3966 H         1 <0>         0.1379
     37 H8          1.1680   -2.6915   -5.6795 H         1 <0>         0.1444
     38 H9          0.1197   -1.7643   -3.6600 H         1 <0>         0.1484
     39 H10         4.8540   -3.8686   -7.9085 H         1 <0>         0.1365
     40 H11         6.0611   -4.8684   -9.7820 H         1 <0>         0.1324
     41 H12         4.0915   -7.7827   -6.3219 H         1 <0>         0.1380
     42 H13         5.9090  -10.7131   -9.6428 H         1 <0>         0.0813
     43 H14         4.7931   -9.4773  -10.2785 H         1 <0>         0.0721
     44 H15         7.6989   -8.9585   -9.4772 H         1 <0>         0.0673
     45 H16         7.1259   -9.1771  -11.1524 H         1 <0>         0.0827
     46 H17         6.4362   -5.5772  -11.1871 H         1 <0>         0.0944
     47 H18         8.5162   -5.9981  -12.4698 H         1 <0>         0.0693
     48 H19         8.7873   -6.2149  -10.7240 H         1 <0>         0.0607
     49 H20         8.6098   -7.6365  -11.7804 H         1 <0>         0.0592
     50 H21         4.9851   -7.2354  -12.3958 H         1 <0>         0.0602
     51 H22         6.2167   -6.4941  -13.4456 H         1 <0>         0.0689
     52 H23         6.4503   -8.1479  -12.8302 H         1 <0>         0.0586
     53 H24         6.2259   -9.3591   -6.2549 H         1 <0>         0.0588
     54 H25         6.5596  -10.7434   -7.3230 H         1 <0>         0.0604
     55 H26         7.3977   -9.1950   -7.5847 H         1 <0>         0.0559
     56 H27         3.2167   -9.5291   -8.4214 H         1 <0>         0.0577
     57 H28         4.1168  -10.9386   -7.8118 H         1 <0>         0.0606
     58 H29         3.8009   -9.5529   -6.7402 H         1 <0>         0.0614
@<TRIPOS>BOND
     1    1    2 1
     2    1   30 1
     3    1   31 1
     4    1   32 1
     5    2    3 1
     6    2   33 1
     7    2   34 1
     8    3    4 1
     9    4    5 2
    10    4    6 1
    11    6   11 ar
    12    6    7 ar
    13    7    8 ar
    14    7   35 1
    15    8    9 ar
    16    8   36 1
    17    9   10 ar
    18    9   12 1
    19   10   11 ar
    20   10   37 1
    21   11   38 1
    22   12   13 1
    23   13   14 2
    24   13   15 1
    25   15   20 ar
    26   15   16 ar
    27   16   17 ar
    28   16   39 1
    29   17   18 ar
    30   17   40 1
    31   18   24 1
    32   18   19 ar
    33   19   20 ar
    34   19   21 1
    35   20   41 1
    36   21   22 1
    37   21   28 1
    38   21   29 1
    39   22   23 1
    40   22   42 1
    41   22   43 1
    42   23   24 1
    43   23   44 1
    44   23   45 1
    45   24   25 1
    46   25   26 1
    47   25   27 1
    48   25   46 1
    49   26   47 1
    50   26   48 1
    51   26   49 1
    52   27   50 1
    53   27   51 1
    54   27   52 1
    55   28   53 1
    56   28   54 1
    57   28   55 1
    58   29   56 1
    59   29   57 1
    60   29   58 1
@<TRIPOS>MOLECULE
CHEMBL328507
   58    60     0     0     0
SMALL
USER_CHARGES

@<TRIPOS>ATOM
      1 C1          0.5728    2.0996    0.1303 C.3       1 <0>        -0.1490
      2 C2          0.2924    0.6067    0.3136 C.3       1 <0>         0.0634
      3 O1          0.6960   -0.1014   -0.8602 O.3       1 <0>        -0.3228
      4 C3          0.5141   -1.4471   -0.8615 C.ar      1 <0>         0.1273
      5 C4          1.5229   -2.2926   -0.3865 C.ar      1 <0>        -0.0521
      6 C5          1.3263   -3.6724   -0.3922 C.ar      1 <0>        -0.0709
      7 C6          0.1408   -4.1969   -0.8650 C.ar      1 <0>        -0.0741
      8 C7         -0.8549   -3.3579   -1.3340 C.ar      1 <0>        -0.0828
      9 C8         -0.6734   -1.9880   -1.3279 C.ar      1 <0>        -0.0929
     10 C9         -1.7657   -1.0817   -1.8343 C.3       1 <0>        -0.0557
     11 C10        -2.0664   -1.4135   -3.2973 C.3       1 <0>        -0.1413
     12 C11        -3.0284   -1.2866   -0.9950 C.3       1 <0>        -0.1446
     13 C12        -0.0704   -5.6890   -0.8710 C.3       1 <0>        -0.0540
     14 C13         1.0013   -6.3522   -1.7385 C.3       1 <0>        -0.1470
     15 C14         0.0282   -6.2238    0.5591 C.3       1 <0>        -0.1497
     16 C15         2.7938   -1.7240    0.1194 C.2       1 <0>         0.1743
     17 C16         3.5208   -2.1459    1.3292 C.ar      1 <0>        -0.1834
     18 C17         3.2867   -3.1142    2.2998 C.ar      1 <0>        -0.0355
     19 C18         4.1941   -3.2665    3.3487 C.ar      1 <0>        -0.0510
     20 C19         5.3311   -2.4453    3.4165 C.ar      1 <0>        -0.0504
     21 C20         5.5583   -1.4970    2.4641 C.ar      1 <0>        -0.1238
     22 C21         4.6631   -1.3311    1.4098 C.ar      1 <0>         0.0737
     23 O2          4.6328   -0.4958    0.3522 O.3       1 <0>        -0.0940
     24 N1          3.4833   -0.7580   -0.4266 N.2       1 <0>        -0.2630
     25 C22         3.9599   -4.2850    4.3818 C.2       1 <0>        -0.0873
     26 C23         3.9794   -5.5972    4.0545 C.2       1 <0>        -0.1755
     27 C24         3.5965   -6.5695    5.0075 C.2       1 <0>         0.5014
     28 O3          3.1419   -6.2202    6.0903 O.co2     1 <0>        -0.6842
     29 O4          3.7193   -7.7610    4.7503 O.co2     1 <0>        -0.7021
     30 C25         3.6979   -3.8674    5.8059 C.3       1 <0>        -0.0868
     31 H1          1.6392    2.2512   -0.0368 H         1 <0>         0.0666
     32 H2          0.0140    2.4715   -0.7285 H         1 <0>         0.0645
     33 H3          0.2650    2.6397    1.0256 H         1 <0>         0.0742
     34 H4          0.8512    0.2348    1.1724 H         1 <0>         0.0489
     35 H5         -0.7740    0.4551    0.4807 H         1 <0>         0.0544
     36 H6          2.1011   -4.3304   -0.0273 H         1 <0>         0.1345
     37 H7         -1.7800   -3.7757   -1.7028 H         1 <0>         0.1305
     38 H8         -1.4420   -0.0438   -1.7563 H         1 <0>         0.0852
     39 H9         -2.8564   -0.7579   -3.6636 H         1 <0>         0.0581
     40 H10        -1.1668   -1.2675   -3.8953 H         1 <0>         0.0570
     41 H11        -2.3901   -2.4514   -3.3754 H         1 <0>         0.0564
     42 H12        -2.8142   -1.0502    0.0473 H         1 <0>         0.0543
     43 H13        -3.8185   -0.6310   -1.3613 H         1 <0>         0.0591
     44 H14        -3.3521   -2.3245   -1.0731 H         1 <0>         0.0582
     45 H15        -1.0568   -5.9147   -1.2761 H         1 <0>         0.0796
     46 H16         1.9877   -6.1265   -1.3334 H         1 <0>         0.0587
     47 H17         0.8486   -7.4315   -1.7429 H         1 <0>         0.0617
     48 H18         0.9311   -5.9712   -2.7574 H         1 <0>         0.0548
     49 H19        -0.7352   -5.7513    1.1771 H         1 <0>         0.0576
     50 H20        -0.1245   -7.3031    0.5547 H         1 <0>         0.0629
     51 H21         1.0146   -5.9981    0.9642 H         1 <0>         0.0616
     52 H22         2.4102   -3.7425    2.2422 H         1 <0>         0.1334
     53 H23         6.0310   -2.5658    4.2301 H         1 <0>         0.1422
     54 H24         6.4363   -0.8712    2.5273 H         1 <0>         0.1375
     55 H25         4.2875   -5.9026    3.0655 H         1 <0>         0.0954
     56 H26         2.6228   -3.8295    5.9815 H         1 <0>         0.0642
     57 H27         4.1518   -4.5887    6.4854 H         1 <0>         0.0938
     58 H28         4.1295   -2.8819    5.9808 H         1 <0>         0.0283
@<TRIPOS>BOND
     1    1    2 1
     2    1   31 1
     3    1   32 1
     4    1   33 1
     5    2    3 1
     6    2   34 1
     7    2   35 1
     8    3    4 1
     9    4    9 ar
    10    4    5 ar
    11    5    6 ar
    12    5   16 1
    13    6    7 ar
    14    6   36 1
    15    7    8 ar
    16    7   13 1
    17    8    9 ar
    18    8   37 1
    19    9   10 1
    20   10   11 1
    21   10   12 1
    22   10   38 1
    23   11   39 1
    24   11   40 1
    25   11   41 1
    26   12   42 1
    27   12   43 1
    28   12   44 1
    29   13   14 1
    30   13   15 1
    31   13   45 1
    32   14   46 1
    33   14   47 1
    34   14   48 1
    35   15   49 1
    36   15   50 1
    37   15   51 1
    38   16   24 2
    39   16   17 1
    40   17   22 ar
    41   17   18 ar
    42   18   19 ar
    43   18   52 1
    44   19   20 ar
    45   19   25 1
    46   20   21 ar
    47   20   53 1
    48   21   22 ar
    49   21   54 1
    50   22   23 1
    51   23   24 1
    52   25   26 2
    53   25   30 1
    54   26   27 1
    55   26   55 1
    56   27   28 2
    57   27   29 1
    58   30   56 1
    59   30   57 1
    60   30   58 1
@<TRIPOS>MOLECULE
CHEMBL88216
   60    62     0     0     0
SMALL
USER_CHARGES

@<TRIPOS>ATOM
      1 C1         -2.0584   -5.5429   -4.3790 C.3       1 <0>        -0.0820
      2 C2         -0.6883   -5.1607   -4.8766 C.2       1 <0>        -0.0913
      3 C3          0.1103   -6.0950   -5.4476 C.2       1 <0>        -0.1870
      4 C4         -0.3860   -7.3963   -5.6898 C.2       1 <0>         0.4994
      5 O1         -1.5039   -7.7086   -5.2973 O.co2     1 <0>        -0.6876
      6 O2          0.3019   -8.2120   -6.2922 O.co2     1 <0>        -0.7075
      7 C5         -0.2205   -3.7820   -4.7434 C.2       1 <0>        -0.1043
      8 C6         -0.9644   -2.8846   -4.0922 C.2       1 <0>        -0.1663
      9 C7         -0.5449   -1.4374   -4.0624 C.3       1 <0>        -0.0434
     10 C8         -1.6317   -0.5779   -4.7112 C.3       1 <0>        -0.0786
     11 C9         -1.2208    0.3126   -5.8856 C.3       1 <0>        -0.1664
     12 C10        -2.0635   -0.9401   -6.1336 C.3       1 <0>        -0.1651
     13 C11        -2.6896   -0.0522   -3.7755 C.ar      1 <0>        -0.0241
     14 C12        -3.9968   -0.4802   -3.9041 C.ar      1 <0>        -0.1048
     15 C13        -4.9677    0.0013   -3.0464 C.ar      1 <0>        -0.0686
     16 C14        -4.6290    0.9096   -2.0621 C.ar      1 <0>        -0.1093
     17 C15        -3.3196    1.3401   -1.9320 C.ar      1 <0>        -0.0845
     18 C16        -2.3472    0.8539   -2.7862 C.ar      1 <0>        -0.0877
     19 C17        -1.0075    1.4660   -2.4375 C.3       1 <0>        -0.0787
     20 C18        -1.3396    2.6951   -1.5651 C.3       1 <0>        -0.1129
     21 C19        -2.6998    2.3138   -0.9527 C.3       1 <0>        -0.0238
     22 C20        -3.5904    3.5480   -0.7956 C.3       1 <0>        -0.1366
     23 C21        -2.4833    1.6380    0.4028 C.3       1 <0>        -0.1352
     24 C22        -6.3944   -0.4637   -3.1850 C.3       1 <0>        -0.0267
     25 C23        -6.4567   -1.9810   -2.9986 C.3       1 <0>        -0.1405
     26 C24        -7.2583    0.2167   -2.1212 C.3       1 <0>        -0.1423
     27 C25        -6.9169   -0.0989   -4.5760 C.3       1 <0>        -0.1381
     28 H1         -1.9709   -6.3660   -3.6698 H         1 <0>         0.0724
     29 H2         -2.5181   -4.6861   -3.8863 H         1 <0>         0.0292
     30 H3         -2.6773   -5.8531   -5.2209 H         1 <0>         0.0709
     31 H4          1.1257   -5.8454   -5.7175 H         1 <0>         0.0941
     32 H5          0.7268   -3.4894   -5.1718 H         1 <0>         0.1050
     33 H6         -1.8667   -3.1958   -3.5869 H         1 <0>         0.1155
     34 H7         -0.4011   -1.1221   -3.0289 H         1 <0>         0.0717
     35 H8          0.3888   -1.3184   -4.6119 H         1 <0>         0.0667
     36 H9         -1.7156    1.2791   -5.9815 H         1 <0>         0.0902
     37 H10        -0.1763    0.2861   -6.1959 H         1 <0>         0.0947
     38 H11        -1.5733   -1.7908   -6.6072 H         1 <0>         0.1008
     39 H12        -3.1126   -0.7978   -6.3928 H         1 <0>         0.0928
     40 H13        -4.2598   -1.1901   -4.6743 H         1 <0>         0.1234
     41 H14        -5.3882    1.2854   -1.3922 H         1 <0>         0.1194
     42 H15        -0.4020    0.7554   -1.8749 H         1 <0>         0.0774
     43 H16        -0.4855    1.7749   -3.3432 H         1 <0>         0.0742
     44 H17        -0.5856    2.8358   -0.7907 H         1 <0>         0.0750
     45 H18        -1.4380    3.5906   -2.1787 H         1 <0>         0.0699
     46 H19        -4.5694    3.2447   -0.4245 H         1 <0>         0.0551
     47 H20        -3.1319    4.2392   -0.0884 H         1 <0>         0.0562
     48 H21        -3.7043    4.0392   -1.7620 H         1 <0>         0.0555
     49 H22        -1.8174    0.7838    0.2806 H         1 <0>         0.0577
     50 H23        -2.0371    2.3503    1.0967 H         1 <0>         0.0574
     51 H24        -3.4413    1.2985    0.7966 H         1 <0>         0.0551
     52 H25        -6.0845   -2.2409   -2.0076 H         1 <0>         0.0565
     53 H26        -7.4887   -2.3173   -3.0989 H         1 <0>         0.0572
     54 H27        -5.8413   -2.4658   -3.7565 H         1 <0>         0.0606
     55 H28        -7.2139    1.2977   -2.2540 H         1 <0>         0.0561
     56 H29        -8.2902   -0.1196   -2.2214 H         1 <0>         0.0566
     57 H30        -6.8861   -0.0432   -1.1302 H         1 <0>         0.0575
     58 H31        -6.3015   -0.5836   -5.3339 H         1 <0>         0.0579
     59 H32        -7.9488   -0.4352   -4.6763 H         1 <0>         0.0572
     60 H33        -6.8725    0.9821   -4.7088 H         1 <0>         0.0538
@<TRIPOS>BOND
     1    1    2 1
     2    1   28 1
     3    1   29 1
     4    1   30 1
     5    2    3 2
     6    2    7 1
     7    3    4 1
     8    3   31 1
     9    4    5 2
    10    4    6 1
    11    7    8 2
    12    7   32 1
    13    8    9 1
    14    8   33 1
    15    9   10 1
    16    9   34 1
    17    9   35 1
    18   10   12 1
    19   10   11 1
    20   10   13 1
    21   11   12 1
    22   11   36 1
    23   11   37 1
    24   12   38 1
    25   12   39 1
    26   13   18 ar
    27   13   14 ar
    28   14   15 ar
    29   14   40 1
    30   15   16 ar
    31   15   24 1
    32   16   17 ar
    33   16   41 1
    34   17   21 1
    35   17   18 ar
    36   18   19 1
    37   19   20 1
    38   19   42 1
    39   19   43 1
    40   20   21 1
    41   20   44 1
    42   20   45 1
    43   21   22 1
    44   21   23 1
    45   22   46 1
    46   22   47 1
    47   22   48 1
    48   23   49 1
    49   23   50 1
    50   23   51 1
    51   24   25 1
    52   24   26 1
    53   24   27 1
    54   25   52 1
    55   25   53 1
    56   25   54 1
    57   26   55 1
    58   26   56 1
    59   26   57 1
    60   27   58 1
    61   27   59 1
    62   27   60 1
@<TRIPOS>MOLECULE
CHEMBL247012
   51    54     0     0     0
SMALL
USER_CHARGES

@<TRIPOS>ATOM
      1 C1         -0.0187    1.5258    0.0104 C.3       1 <0>        -0.1685
      2 C2          0.0021   -0.0041    0.0020 C.3       1 <0>         0.0926
      3 N1         -1.3723   -0.5112    0.0124 N.am      1 <0>        -0.5175
      4 C3         -1.9995   -0.7471    1.2172 C.ar      1 <0>         0.1872
      5 C4         -1.3437   -0.5120    2.4222 C.ar      1 <0>        -0.1621
      6 C5         -1.9791   -0.7506    3.6069 C.ar      1 <0>        -0.0390
      7 C6         -3.2923   -1.2330    3.6291 C.ar      1 <0>        -0.0666
      8 C7         -3.9661   -1.4760    2.4407 C.ar      1 <0>        -0.0396
      9 C8         -3.3207   -1.2333    1.2251 C.ar      1 <0>        -0.1087
     10 C9         -3.9978   -1.4793   -0.0511 C.2       1 <0>        -0.0013
     11 C10        -3.3288   -1.2283   -1.2017 C.2       1 <0>        -0.2063
     12 C11        -2.0036   -0.7337   -1.1516 C.2       1 <0>         0.5498
     13 O1         -1.4167   -0.5075   -2.1956 O.2       1 <0>        -0.5414
     14 C12        -4.2076   -1.5487   -2.3926 C.3       1 <0>        -0.0578
     15 C13        -5.3403   -2.4345   -1.8304 C.3       1 <0>        -0.1195
     16 C14        -5.3879   -1.9926   -0.3514 C.3       1 <0>        -0.0912
     17 C15        -3.9658   -1.4857    4.9265 C.ar      1 <0>        -0.0473
     18 C16        -5.2356   -0.9766    5.1616 C.ar      1 <0>        -0.0710
     19 C17        -5.8646   -1.2192    6.3867 C.ar      1 <0>        -0.0393
     20 C18        -5.2109   -1.9741    7.3698 C.ar      1 <0>        -0.0779
     21 C19        -3.9514   -2.4762    7.1316 C.ar      1 <0>        -0.1802
     22 C20        -3.3240   -2.2434    5.9146 C.ar      1 <0>         0.0948
     23 O2         -2.0851   -2.7460    5.6844 O.3       1 <0>        -0.3049
     24 C21        -1.4891   -3.5094    6.7352 C.3       1 <0>         0.6013
     25 F1         -2.2959   -4.6155    7.0233 F         1 <0>        -0.1650
     26 F2         -0.2231   -3.9479    6.3327 F         1 <0>        -0.1347
     27 F3         -1.3651   -2.7123    7.8781 F         1 <0>        -0.1652
     28 C22        -7.2080   -0.6834    6.6428 C.2       1 <0>        -0.1232
     29 C23        -7.8156   -0.9189    7.8288 C.2       1 <0>        -0.1530
     30 C24        -9.1085   -0.4032    8.0753 C.2       1 <0>         0.4980
     31 O3         -9.6790    0.2571    7.2151 O.co2     1 <0>        -0.6924
     32 O4         -9.6587   -0.6164    9.1491 O.co2     1 <0>        -0.6963
     33 H1          1.0039    1.9031    0.0027 H         1 <0>         0.0746
     34 H2         -0.5459    1.8868   -0.8726 H         1 <0>         0.0633
     35 H3         -0.5289    1.8773    0.9072 H         1 <0>         0.0616
     36 H4          0.5123   -0.3556   -0.8948 H         1 <0>         0.0982
     37 H5          0.5293   -0.3651    0.8851 H         1 <0>         0.0905
     38 H6         -0.3296   -0.1404    2.4201 H         1 <0>         0.1368
     39 H7         -1.4624   -0.5652    4.5370 H         1 <0>         0.1321
     40 H8         -4.9795   -1.8492    2.4550 H         1 <0>         0.1399
     41 H9         -4.6187   -0.6327   -2.8169 H         1 <0>         0.0806
     42 H10        -3.6395   -2.0940   -3.1463 H         1 <0>         0.0775
     43 H11        -6.2852   -2.2225   -2.3307 H         1 <0>         0.0838
     44 H12        -5.0859   -3.4911   -1.9131 H         1 <0>         0.0760
     45 H13        -5.6251   -2.8413    0.2900 H         1 <0>         0.0868
     46 H14        -6.1222   -1.1983   -0.2169 H         1 <0>         0.0956
     47 H15        -5.7357   -0.3951    4.4013 H         1 <0>         0.1416
     48 H16        -5.6959   -2.1620    8.3163 H         1 <0>         0.1395
     49 H17        -3.4510   -3.0569    7.8925 H         1 <0>         0.1338
     50 H18        -7.7108   -0.1014    5.8846 H         1 <0>         0.1326
     51 H19        -7.3128   -1.5008    8.5870 H         1 <0>         0.1012
@<TRIPOS>BOND
     1    1    2 1
     2    1   33 1
     3    1   34 1
     4    1   35 1
     5    2    3 1
     6    2   36 1
     7    2   37 1
     8    3   12 am
     9    3    4 1
    10    4    9 ar
    11    4    5 ar
    12    5    6 ar
    13    5   38 1
    14    6    7 ar
    15    6   39 1
    16    7    8 ar
    17    7   17 1
    18    8    9 ar
    19    8   40 1
    20    9   10 1
    21   10   16 1
    22   10   11 2
    23   11   12 1
    24   11   14 1
    25   12   13 2
    26   14   15 1
    27   14   41 1
    28   14   42 1
    29   15   16 1
    30   15   43 1
    31   15   44 1
    32   16   45 1
    33   16   46 1
    34   17   22 ar
    35   17   18 ar
    36   18   19 ar
    37   18   47 1
    38   19   20 ar
    39   19   28 1
    40   20   21 ar
    41   20   48 1
    42   21   22 ar
    43   21   49 1
    44   22   23 1
    45   23   24 1
    46   24   25 1
    47   24   26 1
    48   24   27 1
    49   28   29 2
    50   28   50 1
    51   29   30 1
    52   29   51 1
    53   30   31 2
    54   30   32 1
@<TRIPOS>MOLECULE
CHEMBL93571
   53    55     0     0     0
SMALL
USER_CHARGES

@<TRIPOS>ATOM
      1 C1         -0.1733    0.2066   -1.6913 C.3       1 <0>        -0.1434
      2 C2         -0.2231   -1.2935   -1.3946 C.3       1 <0>        -0.0538
      3 C3          0.6334   -1.5987   -0.1641 C.3       1 <0>        -0.1472
      4 C4         -1.6481   -1.7061   -1.1297 C.ar      1 <0>        -0.0821
      5 C5         -2.3487   -1.1305   -0.0885 C.ar      1 <0>        -0.0879
      6 C6         -3.6661   -1.5114    0.1571 C.ar      1 <0>        -0.0582
      7 C7         -4.2713   -2.4767   -0.6549 C.ar      1 <0>         0.1212
      8 C8         -3.5568   -3.0455   -1.6954 C.ar      1 <0>        -0.0945
      9 C9         -2.2513   -2.6561   -1.9341 C.ar      1 <0>        -0.0954
     10 C10        -4.2043   -4.0857   -2.5729 C.3       1 <0>        -0.0562
     11 C11        -4.2182   -3.5938   -4.0216 C.3       1 <0>        -0.1415
     12 C12        -3.4121   -5.3916   -2.4852 C.3       1 <0>        -0.1443
     13 O1         -5.5558   -2.8549   -0.4227 O.3       1 <0>        -0.4813
     14 C13        -4.4227   -0.8972    1.2736 C.2       1 <0>        -0.0460
     15 C14        -4.7270    0.4203    1.2555 C.2       1 <0>        -0.1586
     16 S1         -5.6187    0.6648    2.7789 S.3       1 <0>         0.0129
     17 C15        -5.5656   -0.9949    3.4056 C.ar      1 <0>        -0.1167
     18 C16        -4.8585   -1.7073    2.4116 C.ar      1 <0>        -0.0710
     19 C17        -4.6598   -3.0832    2.6365 C.ar      1 <0>        -0.0469
     20 C18        -5.1514   -3.6850    3.7882 C.ar      1 <0>        -0.0295
     21 C19        -5.8539   -2.9386    4.7487 C.ar      1 <0>        -0.0813
     22 C20        -6.0473   -1.6013    4.5505 C.ar      1 <0>        -0.0838
     23 C21        -4.9341   -5.1214    4.0041 C.2       1 <0>        -0.0865
     24 C22        -3.6789   -5.5979    4.1737 C.2       1 <0>        -0.1798
     25 C23        -3.4534   -6.9923    4.2270 C.2       1 <0>         0.5027
     26 O2         -4.3746   -7.7706    4.0104 O.co2     1 <0>        -0.6848
     27 O3         -2.3367   -7.4227    4.4898 O.co2     1 <0>        -0.7042
     28 C24        -6.1089   -6.0647    4.0368 C.3       1 <0>        -0.0859
     29 H1          0.8574    0.5051   -1.8829 H         1 <0>         0.0570
     30 H2         -0.7835    0.4241   -2.5680 H         1 <0>         0.0547
     31 H3         -0.5583    0.7594   -0.8344 H         1 <0>         0.0564
     32 H4          0.1619   -1.8463   -2.2515 H         1 <0>         0.0770
     33 H5          0.5979   -2.6675    0.0472 H         1 <0>         0.0594
     34 H6          1.6641   -1.3003   -0.3558 H         1 <0>         0.0574
     35 H7          0.2484   -1.0459    0.6927 H         1 <0>         0.0571
     36 H8         -1.8759   -0.3861    0.5350 H         1 <0>         0.1246
     37 H9         -1.6990   -3.0988   -2.7497 H         1 <0>         0.1240
     38 H10        -5.2271   -4.2580   -2.2378 H         1 <0>         0.0859
     39 H11        -3.1954   -3.4215   -4.3566 H         1 <0>         0.0550
     40 H12        -4.6866   -4.3462   -4.6562 H         1 <0>         0.0577
     41 H13        -4.7827   -2.6634   -4.0840 H         1 <0>         0.0519
     42 H14        -3.4021   -5.7420   -1.4531 H         1 <0>         0.0614
     43 H15        -3.8804   -6.1440   -3.1199 H         1 <0>         0.0579
     44 H16        -2.3892   -5.2193   -2.8203 H         1 <0>         0.0541
     45 H17        -6.2129   -2.3287   -0.8986 H         1 <0>         0.3828
     46 H18        -4.4862    1.1512    0.4977 H         1 <0>         0.1845
     47 H19        -4.1224   -3.6740    1.9094 H         1 <0>         0.1235
     48 H20        -6.2316   -3.4169    5.6403 H         1 <0>         0.1349
     49 H21        -6.5865   -1.0195    5.2834 H         1 <0>         0.1282
     50 H22        -2.8494   -4.9128    4.2684 H         1 <0>         0.0936
     51 H23        -6.2470   -6.5074    3.0504 H         1 <0>         0.0636
     52 H24        -5.9217   -6.8531    4.7659 H         1 <0>         0.0935
     53 H25        -7.0078   -5.5159    4.3178 H         1 <0>         0.0278
@<TRIPOS>BOND
     1    1    2 1
     2    1   29 1
     3    1   30 1
     4    1   31 1
     5    2    3 1
     6    2    4 1
     7    2   32 1
     8    3   33 1
     9    3   34 1
    10    3   35 1
    11    4    9 ar
    12    4    5 ar
    13    5    6 ar
    14    5   36 1
    15    6    7 ar
    16    6   14 1
    17    7    8 ar
    18    7   13 1
    19    8    9 ar
    20    8   10 1
    21    9   37 1
    22   10   11 1
    23   10   12 1
    24   10   38 1
    25   11   39 1
    26   11   40 1
    27   11   41 1
    28   12   42 1
    29   12   43 1
    30   12   44 1
    31   13   45 1
    32   14   18 1
    33   14   15 2
    34   15   16 1
    35   15   46 1
    36   16   17 1
    37   17   22 ar
    38   17   18 ar
    39   18   19 ar
    40   19   20 ar
    41   19   47 1
    42   20   21 ar
    43   20   23 1
    44   21   22 ar
    45   21   48 1
    46   22   49 1
    47   23   24 2
    48   23   28 1
    49   24   25 1
    50   24   50 1
    51   25   26 2
    52   25   27 1
    53   28   51 1
    54   28   52 1
    55   28   53 1
@<TRIPOS>MOLECULE
CHEMBL378926
   59    61     0     0     0
SMALL
USER_CHARGES

@<TRIPOS>ATOM
      1 C1         -0.7778    1.3562    0.0881 C.3       1 <0>        -0.0900
      2 C2         -0.2263   -0.0448    0.0255 C.2       1 <0>        -0.0937
      3 C3          0.1247   -0.6865    1.1664 C.2       1 <0>        -0.1774
      4 C4          0.1271    0.0097    2.3968 C.2       1 <0>         0.4991
      5 O1         -0.0733    1.2182    2.4172 O.co2     1 <0>        -0.6852
      6 O2          0.3295   -0.5956    3.4427 O.co2     1 <0>        -0.7050
      7 C5         -0.0700   -0.7119   -1.2660 C.2       1 <0>        -0.0848
      8 C6         -0.4159   -0.0797   -2.3901 C.2       1 <0>        -0.1875
      9 C7         -0.2548   -0.7673   -3.7214 C.3       1 <0>         0.1788
     10 H1          0.1663   -1.7621   -3.5761 H         1 <0>         0.0678
     11 C8          0.6698    0.0659   -4.6339 C.3       1 <0>        -0.1228
     12 C9          0.0103   -0.0876   -6.0299 C.3       1 <0>        -0.1331
     13 C10        -1.4942   -0.1161   -5.6617 C.3       1 <0>         0.1146
     14 N1         -1.5589   -0.8694   -4.3924 N.pl3     1 <0>        -0.6284
     15 C11        -2.6710   -1.5629   -3.9092 C.ar      1 <0>         0.2397
     16 C12        -2.6039   -2.2298   -2.6922 C.ar      1 <0>        -0.1863
     17 C13        -3.7063   -2.9127   -2.2265 C.ar      1 <0>        -0.0699
     18 C14        -4.8858   -2.9394   -2.9612 C.ar      1 <0>        -0.1227
     19 C15        -4.9572   -2.2750   -4.1656 C.ar      1 <0>        -0.0194
     20 C16        -3.8496   -1.5848   -4.6382 C.ar      1 <0>        -0.1999
     21 C17        -6.2082   -2.2493   -5.0044 C.3       1 <0>        -0.0221
     22 C18        -7.1606   -3.3666   -4.5835 C.3       1 <0>        -0.1092
     23 C19        -7.3527   -3.2920   -3.0642 C.3       1 <0>        -0.1106
     24 C20        -6.0471   -3.7124   -2.3925 C.3       1 <0>        -0.0143
     25 C21        -5.8195   -5.2077   -2.6236 C.3       1 <0>        -0.1376
     26 C22        -6.1440   -3.4442   -0.8893 C.3       1 <0>        -0.1434
     27 C23        -5.8327   -2.4343   -6.4761 C.3       1 <0>        -0.1383
     28 C24        -6.9058   -0.8990   -4.8286 C.3       1 <0>        -0.1376
     29 H2          0.0455    2.0689    0.1371 H         1 <0>         0.0613
     30 H3         -1.3751    1.5517   -0.8024 H         1 <0>         0.0289
     31 H4         -1.4027    1.4614    0.9750 H         1 <0>         0.0878
     32 H5          0.4026   -1.7296    1.1356 H         1 <0>         0.0956
     33 H6          0.3252   -1.7160   -1.3109 H         1 <0>         0.1064
     34 H7         -0.8111    0.9244   -2.3452 H         1 <0>         0.1173
     35 H8          0.6778    1.1108   -4.3239 H         1 <0>         0.0796
     36 H9          1.6797   -0.3443   -4.6373 H         1 <0>         0.0805
     37 H10         0.2405    0.7665   -6.6668 H         1 <0>         0.0808
     38 H11         0.3139   -1.0204   -6.5050 H         1 <0>         0.0734
     39 H12        -1.8698    0.8976   -5.5222 H         1 <0>         0.0583
     40 H13        -2.0645   -0.6297   -6.4357 H         1 <0>         0.0669
     41 H14        -1.6918   -2.2134   -2.1141 H         1 <0>         0.1245
     42 H15        -3.6533   -3.4326   -1.2814 H         1 <0>         0.1190
     43 H16        -3.9053   -1.0645   -5.5829 H         1 <0>         0.1150
     44 H17        -8.1213   -3.2371   -5.0818 H         1 <0>         0.0626
     45 H18        -6.7343   -4.3330   -4.8525 H         1 <0>         0.0673
     46 H19        -7.6019   -2.2709   -2.7754 H         1 <0>         0.0675
     47 H20        -8.1546   -3.9656   -2.7620 H         1 <0>         0.0627
     48 H21        -4.8983   -5.5157   -2.1290 H         1 <0>         0.0546
     49 H22        -6.6579   -5.7705   -2.2133 H         1 <0>         0.0527
     50 H23        -5.7401   -5.4020   -3.6932 H         1 <0>         0.0549
     51 H24        -6.2964   -2.3784   -0.7195 H         1 <0>         0.0564
     52 H25        -6.9833   -4.0020   -0.4740 H         1 <0>         0.0534
     53 H26        -5.2212   -3.7612   -0.4034 H         1 <0>         0.0592
     54 H27        -5.3264   -3.3910   -6.6044 H         1 <0>         0.0547
     55 H28        -6.7356   -2.4163   -7.0864 H         1 <0>         0.0540
     56 H29        -5.1686   -1.6274   -6.7858 H         1 <0>         0.0562
     57 H30        -6.2361   -0.1000   -5.1468 H         1 <0>         0.0545
     58 H31        -7.8118   -0.8765   -5.4342 H         1 <0>         0.0544
     59 H32        -7.1663   -0.7585   -3.7796 H         1 <0>         0.0589
@<TRIPOS>BOND
     1    1    2 1
     2    1   29 1
     3    1   30 1
     4    1   31 1
     5    2    3 2
     6    2    7 1
     7    3    4 1
     8    3   32 1
     9    4    5 2
    10    4    6 1
    11    7    8 2
    12    7   33 1
    13    8    9 1
    14    8   34 1
    15    9   10 1
    16    9   14 1
    17    9   11 1
    18   11   12 1
    19   11   35 1
    20   11   36 1
    21   12   13 1
    22   12   37 1
    23   12   38 1
    24   13   14 1
    25   13   39 1
    26   13   40 1
    27   14   15 1
    28   15   20 ar
    29   15   16 ar
    30   16   17 ar
    31   16   41 1
    32   17   18 ar
    33   17   42 1
    34   18   24 1
    35   18   19 ar
    36   19   20 ar
    37   19   21 1
    38   20   43 1
    39   21   22 1
    40   21   27 1
    41   21   28 1
    42   22   23 1
    43   22   44 1
    44   22   45 1
    45   23   24 1
    46   23   46 1
    47   23   47 1
    48   24   25 1
    49   24   26 1
    50   25   48 1
    51   25   49 1
    52   25   50 1
    53   26   51 1
    54   26   52 1
    55   26   53 1
    56   27   54 1
    57   27   55 1
    58   27   56 1
    59   28   57 1
    60   28   58 1
    61   28   59 1
@<TRIPOS>MOLECULE
CHEMBL366112
   63    66     0     0     0
SMALL
USER_CHARGES

@<TRIPOS>ATOM
      1 C1         -0.0187    1.5258    0.0104 C.3       1 <0>        -0.1480
      2 C2          0.0021   -0.0041    0.0020 C.3       1 <0>        -0.1245
      3 C3         -1.4333   -0.5336    0.0129 C.3       1 <0>         0.0593
      4 O1         -1.4139   -1.9625    0.0050 O.3       1 <0>        -0.3022
      5 C4         -2.6158   -2.5956    0.0131 C.ar      1 <0>         0.1464
      6 C5         -3.7886   -1.8634    0.0224 C.ar      1 <0>        -0.2107
      7 C6         -5.0223   -2.5012    0.0282 C.ar      1 <0>        -0.0229
      8 C7         -5.0848   -3.8788    0.0214 C.ar      1 <0>        -0.0988
      9 C8         -3.9150   -4.6236    0.0162 C.ar      1 <0>        -0.0630
     10 C9         -2.6760   -3.9928    0.0062 C.ar      1 <0>        -0.0610
     11 C10        -1.4290   -4.7946   -0.0068 C.2       1 <0>         0.0260
     12 C11        -0.7108   -4.8985   -1.1335 C.2       1 <0>        -0.1523
     13 C12        -0.5179   -4.5505   -2.5870 C.3       1 <0>        -0.1375
     14 C13         0.4913   -5.4427   -1.8614 C.3       1 <0>        -0.1090
     15 C14        -0.9771   -5.4808    1.2253 C.ar      1 <0>         0.1537
     16 C15        -1.7354   -5.3711    2.3923 C.ar      1 <0>        -0.1714
     17 C16        -1.3083   -6.0136    3.5361 C.ar      1 <0>        -0.0474
     18 C17        -0.1191   -6.7572    3.4790 C.ar      1 <0>        -0.1806
     19 C18         0.5854   -6.8199    2.2731 C.ar      1 <0>         0.1273
     20 N1          0.1415   -6.1970    1.2039 N.ar      1 <0>        -0.4830
     21 C19         0.3798   -7.4614    4.6733 C.2       1 <0>         0.5245
     22 O2         -0.2432   -7.4004    5.7241 O.co2     1 <0>        -0.6851
     23 O3          1.4171   -8.1070    4.6139 O.co2     1 <0>        -0.6834
     24 C20        -6.3907   -4.6304    0.0107 C.3       1 <0>        -0.0168
     25 C21        -7.5377   -3.7216    0.4472 C.3       1 <0>        -0.1115
     26 C22        -7.4810   -2.4365   -0.3870 C.3       1 <0>        -0.1101
     27 C23        -6.2552   -1.6351    0.0459 C.3       1 <0>        -0.0235
     28 C24        -6.4763   -1.1009    1.4625 C.3       1 <0>        -0.1394
     29 C25        -6.0584   -0.4577   -0.9112 C.3       1 <0>        -0.1402
     30 C26        -6.6650   -5.1448   -1.4038 C.3       1 <0>        -0.1389
     31 C27        -6.2963   -5.8191    0.9693 C.3       1 <0>        -0.1455
     32 H1          1.0039    1.9031    0.0027 H         1 <0>         0.0636
     33 H2         -0.5459    1.8868   -0.8726 H         1 <0>         0.0556
     34 H3         -0.5289    1.8773    0.9072 H         1 <0>         0.0568
     35 H4          0.5123   -0.3556   -0.8948 H         1 <0>         0.0727
     36 H5          0.5293   -0.3651    0.8851 H         1 <0>         0.0748
     37 H6         -1.9435   -0.1821    0.9097 H         1 <0>         0.0591
     38 H7         -1.9605   -0.1726   -0.8702 H         1 <0>         0.0581
     39 H8         -3.7448   -0.7843    0.0256 H         1 <0>         0.1269
     40 H9         -3.9669   -5.7024    0.0162 H         1 <0>         0.1297
     41 H10        -1.1835   -5.0210   -3.3107 H         1 <0>         0.0970
     42 H11        -0.2063   -3.5334   -2.8248 H         1 <0>         0.0971
     43 H12         1.4629   -5.0091   -1.6247 H         1 <0>         0.1006
     44 H13         0.4957   -6.5055   -2.1033 H         1 <0>         0.1011
     45 H14        -2.6456   -4.7898    2.3998 H         1 <0>         0.1234
     46 H15        -1.8749   -5.9457    4.4531 H         1 <0>         0.1354
     47 H16         1.5015   -7.3893    2.2183 H         1 <0>         0.1613
     48 H17        -8.4895   -4.2259    0.2803 H         1 <0>         0.0660
     49 H18        -7.4312   -3.4780    1.5043 H         1 <0>         0.0695
     50 H19        -7.4002   -2.6884   -1.4444 H         1 <0>         0.0687
     51 H20        -8.3829   -1.8484   -0.2171 H         1 <0>         0.0655
     52 H21        -5.6115   -0.5117    1.7677 H         1 <0>         0.0548
     53 H22        -7.3676   -0.4737    1.4793 H         1 <0>         0.0574
     54 H23        -6.6072   -1.9368    2.1496 H         1 <0>         0.0609
     55 H24        -5.8907   -0.8340   -1.9204 H         1 <0>         0.0563
     56 H25        -6.9485    0.1714   -0.9013 H         1 <0>         0.0573
     57 H26        -5.1958    0.1282   -0.5939 H         1 <0>         0.0557
     58 H27        -5.8581   -5.8100   -1.7114 H         1 <0>         0.0561
     59 H28        -7.6092   -5.6893   -1.4157 H         1 <0>         0.0561
     60 H29        -6.7231   -4.3016   -2.0922 H         1 <0>         0.0563
     61 H30        -6.0909   -5.4579    1.9770 H         1 <0>         0.0588
     62 H31        -7.2394   -6.3656    0.9644 H         1 <0>         0.0569
     63 H32        -5.4914   -6.4808    0.6494 H         1 <0>         0.0601
@<TRIPOS>BOND
     1    1    2 1
     2    1   32 1
     3    1   33 1
     4    1   34 1
     5    2    3 1
     6    2   35 1
     7    2   36 1
     8    3    4 1
     9    3   37 1
    10    3   38 1
    11    4    5 1
    12    5   10 ar
    13    5    6 ar
    14    6    7 ar
    15    6   39 1
    16    7   27 1
    17    7    8 ar
    18    8    9 ar
    19    8   24 1
    20    9   10 ar
    21    9   40 1
    22   10   11 1
    23   11   12 2
    24   11   15 1
    25   12   14 1
    26   12   13 1
    27   13   14 1
    28   13   41 1
    29   13   42 1
    30   14   43 1
    31   14   44 1
    32   15   20 ar
    33   15   16 ar
    34   16   17 ar
    35   16   45 1
    36   17   18 ar
    37   17   46 1
    38   18   19 ar
    39   18   21 1
    40   19   20 ar
    41   19   47 1
    42   21   22 2
    43   21   23 1
    44   24   25 1
    45   24   30 1
    46   24   31 1
    47   25   26 1
    48   25   48 1
    49   25   49 1
    50   26   27 1
    51   26   50 1
    52   26   51 1
    53   27   28 1
    54   27   29 1
    55   28   52 1
    56   28   53 1
    57   28   54 1
    58   29   55 1
    59   29   56 1
    60   29   57 1
    61   30   58 1
    62   30   59 1
    63   30   60 1
    64   31   61 1
    65   31   62 1
    66   31   63 1
@<TRIPOS>MOLECULE
CHEMBL312737
   61    63     0     0     0
SMALL
USER_CHARGES

@<TRIPOS>ATOM
      1 C1          0.3232    1.3381   -0.3604 C.3       1 <0>        -0.1135
      2 C2          0.1994   -0.1316   -0.0510 C.ar      1 <0>        -0.0691
      3 C3          0.2306   -1.0580   -1.0675 C.ar      1 <0>        -0.1192
      4 C4          0.1199   -2.4178   -0.7958 C.ar      1 <0>        -0.0602
      5 C5         -0.0204   -2.8512    0.5065 C.ar      1 <0>        -0.0683
      6 C6         -0.0577   -1.9294    1.5396 C.ar      1 <0>        -0.1017
      7 C7          0.0576   -0.5631    1.2727 C.ar      1 <0>        -0.0292
      8 C8          0.0246    0.4126    2.3715 C.2       1 <0>        -0.1092
      9 C9          1.1022    1.0761    2.8479 C.2       1 <0>        -0.0685
     10 C10         0.6958    1.9966    3.9754 C.3       1 <0>        -0.0944
     11 C11        -0.8380    2.1317    3.8475 C.3       1 <0>        -0.1208
     12 C12        -1.2196    0.8221    3.1253 C.3       1 <0>        -0.0786
     13 C13         2.4166    0.9295    2.3628 C.2       1 <0>        -0.1299
     14 C14         3.4319    1.6496    2.9176 C.2       1 <0>        -0.0803
     15 C15         4.7420    1.5036    2.4341 C.2       1 <0>        -0.0788
     16 C16         5.7584    2.2245    2.9895 C.2       1 <0>        -0.1379
     17 C17         7.0384    2.1995    2.4070 C.2       1 <0>         0.4405
     18 O1          7.2307    1.5711    1.2470 O.co2     1 <0>        -0.6909
     19 O2          8.0594    2.8041    3.0148 O.co2     1 <0>        -0.7158
     20 C18         5.0253    0.5505    1.3017 C.3       1 <0>        -0.0996
     21 C19        -0.1287   -4.3098    0.8679 C.3       1 <0>        -0.0212
     22 C20        -0.5011   -5.1413   -0.3577 C.3       1 <0>        -0.1100
     23 C21         0.4652   -4.7875   -1.4942 C.3       1 <0>        -0.1122
     24 C22         0.1558   -3.3680   -1.9649 C.3       1 <0>        -0.0222
     25 C23        -1.2031   -3.3544   -2.6679 C.3       1 <0>        -0.1375
     26 C24         1.2365   -2.9161   -2.9492 C.3       1 <0>        -0.1434
     27 C25         1.2145   -4.7945    1.4171 C.3       1 <0>        -0.1406
     28 C26        -1.2044   -4.4847    1.9419 C.3       1 <0>        -0.1411
     29 H1          1.3747    1.6247   -0.3477 H         1 <0>         0.0736
     30 H2         -0.0961    1.5384   -1.3464 H         1 <0>         0.0600
     31 H3         -0.2195    1.9141    0.3891 H         1 <0>         0.0669
     32 H4          0.3422   -0.7255   -2.0889 H         1 <0>         0.1203
     33 H5         -0.1724   -2.2694    2.5583 H         1 <0>         0.1196
     34 H6          0.9584    1.5564    4.9373 H         1 <0>         0.0765
     35 H7          1.1728    2.9700    3.8605 H         1 <0>         0.0736
     36 H8         -1.3069    2.1881    4.8298 H         1 <0>         0.0712
     37 H9         -1.1031    2.9978    3.2410 H         1 <0>         0.0693
     38 H10        -2.0425    0.9963    2.4321 H         1 <0>         0.0672
     39 H11        -1.4912    0.0567    3.8523 H         1 <0>         0.0715
     40 H12         2.6196    0.2465    1.5513 H         1 <0>         0.1229
     41 H13         3.2288    2.3327    3.7291 H         1 <0>         0.1118
     42 H14         5.5802    2.8144    3.8765 H         1 <0>         0.1078
     43 H15         5.0226    1.0962    0.3582 H         1 <0>         0.0648
     44 H16         6.0011    0.0883    1.4513 H         1 <0>         0.0944
     45 H17         4.2572   -0.2225    1.2765 H         1 <0>         0.0321
     46 H18        -0.4169   -6.2019   -0.1211 H         1 <0>         0.0649
     47 H19        -1.5230   -4.9121   -0.6601 H         1 <0>         0.0672
     48 H20         1.4921   -4.8387   -1.1322 H         1 <0>         0.0700
     49 H21         0.3315   -5.4856   -2.3205 H         1 <0>         0.0651
     50 H22        -1.4186   -2.3466   -3.0227 H         1 <0>         0.0550
     51 H23        -1.1810   -4.0407   -3.5145 H         1 <0>         0.0560
     52 H24        -1.9777   -3.6664   -1.9674 H         1 <0>         0.0568
     53 H25         2.2053   -2.9148   -2.4497 H         1 <0>         0.0589
     54 H26         1.2656   -3.6011   -3.7966 H         1 <0>         0.0561
     55 H27         1.0086   -1.9105   -3.3026 H         1 <0>         0.0586
     56 H28         1.4743   -4.2166    2.3040 H         1 <0>         0.0569
     57 H29         1.1402   -5.8497    1.6798 H         1 <0>         0.0561
     58 H30         1.9861   -4.6624    0.6586 H         1 <0>         0.0594
     59 H31        -2.1615   -4.1313    1.5584 H         1 <0>         0.0548
     60 H32        -1.2858   -5.5390    2.2062 H         1 <0>         0.0559
     61 H33        -0.9320   -3.9085    2.8261 H         1 <0>         0.0584
@<TRIPOS>BOND
     1    1    2 1
     2    1   29 1
     3    1   30 1
     4    1   31 1
     5    2    7 ar
     6    2    3 ar
     7    3    4 ar
     8    3   32 1
     9    4   24 1
    10    4    5 ar
    11    5    6 ar
    12    5   21 1
    13    6    7 ar
    14    6   33 1
    15    7    8 1
    16    8   12 1
    17    8    9 2
    18    9   10 1
    19    9   13 1
    20   10   11 1
    21   10   34 1
    22   10   35 1
    23   11   12 1
    24   11   36 1
    25   11   37 1
    26   12   38 1
    27   12   39 1
    28   13   14 2
    29   13   40 1
    30   14   15 1
    31   14   41 1
    32   15   16 2
    33   15   20 1
    34   16   17 1
    35   16   42 1
    36   17   18 2
    37   17   19 1
    38   20   43 1
    39   20   44 1
    40   20   45 1
    41   21   22 1
    42   21   27 1
    43   21   28 1
    44   22   23 1
    45   22   46 1
    46   22   47 1
    47   23   24 1
    48   23   48 1
    49   23   49 1
    50   24   25 1
    51   24   26 1
    52   25   50 1
    53   25   51 1
    54   25   52 1
    55   26   53 1
    56   26   54 1
    57   26   55 1
    58   27   56 1
    59   27   57 1
    60   27   58 1
    61   28   59 1
    62   28   60 1
    63   28   61 1
@<TRIPOS>MOLECULE
CHEMBL118693
   50    52     0     0     0
SMALL
USER_CHARGES

@<TRIPOS>ATOM
      1 C1         -0.0346    1.5018    0.0101 C.3       1 <0>        -0.1139
      2 C2         -0.0016   -0.0048    0.0021 C.ar      1 <0>        -0.0736
      3 C3          0.0058   -0.6907   -1.1931 C.ar      1 <0>        -0.1073
      4 C4          0.0381   -2.0798   -1.2127 C.ar      1 <0>        -0.0689
      5 C5          0.0669   -2.7810   -0.0268 C.ar      1 <0>        -0.0482
      6 C6          0.0561   -2.0953    1.1790 C.ar      1 <0>        -0.1140
      7 C7          0.0274   -0.7088    1.1997 C.ar      1 <0>        -0.0950
      8 S1          0.0213    0.1547    2.7356 S.3       1 <0>        -0.0197
      9 C8         -0.1047   -1.1230    3.9424 C.ar      1 <0>        -0.1583
     10 C9          1.0470   -1.6273    4.5436 C.ar      1 <0>        -0.0799
     11 C10         0.9532   -2.6174    5.4791 C.ar      1 <0>        -0.0981
     12 C11        -0.3022   -3.1256    5.8346 C.ar      1 <0>        -0.0943
     13 C12        -1.4572   -2.6162    5.2288 C.ar      1 <0>        -0.0976
     14 C13        -1.3562   -1.6228    4.2976 C.ar      1 <0>        -0.0802
     15 C14        -0.4073   -4.1926    6.8417 C.2       1 <0>         0.5155
     16 O1          0.6030   -4.6370    7.3699 O.co2     1 <0>        -0.6817
     17 O2         -1.5050   -4.6357    7.1512 O.co2     1 <0>        -0.6815
     18 C15         0.1190   -4.2857    0.0240 C.3       1 <0>        -0.0223
     19 C16        -0.3043   -4.8837   -1.3161 C.3       1 <0>        -0.1104
     20 C17         0.5088   -4.2074   -2.4262 C.3       1 <0>        -0.1110
     21 C18         0.0362   -2.7609   -2.5565 C.3       1 <0>        -0.0205
     22 C19        -1.3825   -2.7434   -3.1290 C.3       1 <0>        -0.1384
     23 C20         0.9714   -2.0082   -3.5051 C.3       1 <0>        -0.1405
     24 C21         1.5470   -4.7305    0.3463 C.3       1 <0>        -0.1393
     25 C22        -0.8239   -4.7864    1.1200 C.3       1 <0>        -0.1441
     26 H1          0.9848    1.8876    0.0005 H         1 <0>         0.0707
     27 H2         -0.5663    1.8583   -0.8721 H         1 <0>         0.0658
     28 H3         -0.5460    1.8493    0.9078 H         1 <0>         0.0718
     29 H4         -0.0142   -0.1433   -2.1239 H         1 <0>         0.1222
     30 H5          0.0739   -2.6450    2.1085 H         1 <0>         0.1288
     31 H6          2.0150   -1.2348    4.2690 H         1 <0>         0.1229
     32 H7          1.8462   -3.0083    5.9441 H         1 <0>         0.1326
     33 H8         -2.4270   -3.0062    5.5003 H         1 <0>         0.1323
     34 H9         -2.2469   -1.2267    3.8327 H         1 <0>         0.1216
     35 H10        -0.1075   -5.9558   -1.3182 H         1 <0>         0.0667
     36 H11        -1.3671   -4.7047   -1.4786 H         1 <0>         0.0681
     37 H12         1.5678   -4.2257   -2.1687 H         1 <0>         0.0685
     38 H13         0.3505   -4.7317   -3.3686 H         1 <0>         0.0650
     39 H14        -1.7161   -1.7119   -3.2419 H         1 <0>         0.0547
     40 H15        -1.3880   -3.2355   -4.1016 H         1 <0>         0.0560
     41 H16        -2.0543   -3.2704   -2.4514 H         1 <0>         0.0585
     42 H17         1.9818   -2.0097   -3.0962 H         1 <0>         0.0559
     43 H18         0.9727   -2.4981   -4.4787 H         1 <0>         0.0559
     44 H19         0.6259   -0.9803   -3.6160 H         1 <0>         0.0575
     45 H20         1.8456   -4.3218    1.3116 H         1 <0>         0.0574
     46 H21         1.5887   -5.8190    0.3839 H         1 <0>         0.0587
     47 H22         2.2239   -4.3674   -0.4271 H         1 <0>         0.0562
     48 H23        -1.8413   -4.4633    0.8996 H         1 <0>         0.0552
     49 H24        -0.7890   -5.8751    1.1599 H         1 <0>         0.0591
     50 H25        -0.5131   -4.3774    2.0814 H         1 <0>         0.0613
@<TRIPOS>BOND
     1    1    2 1
     2    1   26 1
     3    1   27 1
     4    1   28 1
     5    2    7 ar
     6    2    3 ar
     7    3    4 ar
     8    3   29 1
     9    4   21 1
    10    4    5 ar
    11    5    6 ar
    12    5   18 1
    13    6    7 ar
    14    6   30 1
    15    7    8 1
    16    8    9 1
    17    9   14 ar
    18    9   10 ar
    19   10   11 ar
    20   10   31 1
    21   11   12 ar
    22   11   32 1
    23   12   13 ar
    24   12   15 1
    25   13   14 ar
    26   13   33 1
    27   14   34 1
    28   15   16 2
    29   15   17 1
    30   18   19 1
    31   18   24 1
    32   18   25 1
    33   19   20 1
    34   19   35 1
    35   19   36 1
    36   20   21 1
    37   20   37 1
    38   20   38 1
    39   21   22 1
    40   21   23 1
    41   22   39 1
    42   22   40 1
    43   22   41 1
    44   23   42 1
    45   23   43 1
    46   23   44 1
    47   24   45 1
    48   24   46 1
    49   24   47 1
    50   25   48 1
    51   25   49 1
    52   25   50 1
@<TRIPOS>MOLECULE
CHEMBL91718
   53    55     0     0     0
SMALL
USER_CHARGES

@<TRIPOS>ATOM
      1 C1          0.4120    1.0709   -0.1437 C.3       1 <0>        -0.1177
      2 C2          0.1965   -0.3974    0.1189 C.ar      1 <0>        -0.0728
      3 C3          0.1584   -1.2895   -0.9281 C.ar      1 <0>        -0.1207
      4 C4         -0.0377   -2.6473   -0.6996 C.ar      1 <0>        -0.0618
      5 C5         -0.1930   -3.1132    0.5893 C.ar      1 <0>        -0.0675
      6 C6         -0.1603   -2.2250    1.6521 C.ar      1 <0>        -0.1000
      7 C7          0.0400   -0.8623    1.4281 C.ar      1 <0>        -0.0389
      8 C8          0.0806    0.0783    2.5600 C.2       1 <0>        -0.0954
      9 C9          1.1699    0.1336    3.3514 C.2       1 <0>        -0.0462
     10 C10         1.1494    0.9458    4.5699 C.2       1 <0>        -0.1784
     11 C11         2.1918    1.2320    5.4483 C.2       1 <0>        -0.1377
     12 C12         1.9378    2.0204    6.5295 C.2       1 <0>        -0.1558
     13 C13         0.6471    2.5083    6.7131 C.2       1 <0>        -0.1670
     14 S1         -0.2163    1.8293    5.3058 S.3       1 <0>         0.1148
     15 C14         0.1483    3.3353    7.7479 C.2       1 <0>         0.5455
     16 O1          0.8950    3.7158    8.6420 O.co2     1 <0>        -0.6731
     17 O2         -1.0304    3.6709    7.7496 O.co2     1 <0>        -0.6809
     18 C15        -1.0961    0.9792    2.8337 C.3       1 <0>        -0.1249
     19 C16        -0.3923   -4.5729    0.9049 C.3       1 <0>        -0.0215
     20 C17        -0.8299   -5.3378   -0.3424 C.3       1 <0>        -0.1110
     21 C18         0.1462   -5.0099   -1.4783 C.3       1 <0>        -0.1111
     22 C19        -0.0748   -3.5586   -1.8992 C.3       1 <0>        -0.0224
     23 C20        -1.4366   -3.4341   -2.5854 C.3       1 <0>        -0.1387
     24 C21         1.0235   -3.1452   -2.8809 C.3       1 <0>        -0.1415
     25 C22         0.9220   -5.1611    1.4221 C.3       1 <0>        -0.1395
     26 C23        -1.4665   -4.7132    1.9853 C.3       1 <0>        -0.1436
     27 H1          1.4799    1.2889   -0.1338 H         1 <0>         0.0692
     28 H2         -0.0028    1.3305   -1.1177 H         1 <0>         0.0621
     29 H3         -0.0853    1.6552    0.6305 H         1 <0>         0.0735
     30 H4          0.2818   -0.9311   -1.9393 H         1 <0>         0.1197
     31 H5         -0.2872   -2.5901    2.6605 H         1 <0>         0.1235
     32 H6          2.0581   -0.4211    3.0871 H         1 <0>         0.1261
     33 H7          3.1817    0.8364    5.2757 H         1 <0>         0.1232
     34 H8          2.7226    2.2621    7.2310 H         1 <0>         0.1319
     35 H9         -1.7370    0.5211    3.5870 H         1 <0>         0.0768
     36 H10        -0.7391    1.9427    3.1975 H         1 <0>         0.0815
     37 H11        -1.6633    1.1254    1.9144 H         1 <0>         0.0685
     38 H12        -0.8123   -6.4089   -0.1411 H         1 <0>         0.0655
     39 H13        -1.8376   -5.0334   -0.6250 H         1 <0>         0.0683
     40 H14         1.1711   -5.1393   -1.1306 H         1 <0>         0.0684
     41 H15        -0.0408   -5.6702   -2.3251 H         1 <0>         0.0650
     42 H16        -1.5896   -2.4032   -2.9049 H         1 <0>         0.0554
     43 H17        -1.4673   -4.0919   -3.4539 H         1 <0>         0.0562
     44 H18        -2.2231   -3.7183   -1.8863 H         1 <0>         0.0582
     45 H19         1.9951   -3.2230   -2.3930 H         1 <0>         0.0560
     46 H20         0.9999   -3.8022   -3.7503 H         1 <0>         0.0560
     47 H21         0.8580   -2.1158   -3.1988 H         1 <0>         0.0583
     48 H22         1.2274   -4.6307    2.3240 H         1 <0>         0.0572
     49 H23         0.7819   -6.2174    1.6516 H         1 <0>         0.0567
     50 H24         1.6931   -5.0542    0.6591 H         1 <0>         0.0571
     51 H25        -2.4024   -4.2863    1.6249 H         1 <0>         0.0563
     52 H26        -1.6136   -5.7682    2.2165 H         1 <0>         0.0567
     53 H27        -1.1487   -4.1852    2.8843 H         1 <0>         0.0606
@<TRIPOS>BOND
     1    1    2 1
     2    1   27 1
     3    1   28 1
     4    1   29 1
     5    2    7 ar
     6    2    3 ar
     7    3    4 ar
     8    3   30 1
     9    4   22 1
    10    4    5 ar
    11    5    6 ar
    12    5   19 1
    13    6    7 ar
    14    6   31 1
    15    7    8 1
    16    8    9 2
    17    8   18 1
    18    9   10 1
    19    9   32 1
    20   10   14 1
    21   10   11 2
    22   11   12 1
    23   11   33 1
    24   12   13 2
    25   12   34 1
    26   13   14 1
    27   13   15 1
    28   15   16 2
    29   15   17 1
    30   18   35 1
    31   18   36 1
    32   18   37 1
    33   19   20 1
    34   19   25 1
    35   19   26 1
    36   20   21 1
    37   20   38 1
    38   20   39 1
    39   21   22 1
    40   21   40 1
    41   21   41 1
    42   22   23 1
    43   22   24 1
    44   23   42 1
    45   23   43 1
    46   23   44 1
    47   24   45 1
    48   24   46 1
    49   24   47 1
    50   25   48 1
    51   25   49 1
    52   25   50 1
    53   26   51 1
    54   26   52 1
    55   26   53 1
@<TRIPOS>MOLECULE
CHEMBL80236
   60    62     0     0     0
SMALL
USER_CHARGES

@<TRIPOS>ATOM
      1 C1         -0.7778    1.3562    0.0881 C.3       1 <0>        -0.0910
      2 C2         -0.2263   -0.0448    0.0255 C.2       1 <0>        -0.0923
      3 C3          0.1247   -0.6865    1.1664 C.2       1 <0>        -0.1840
      4 C4          0.1271    0.0097    2.3968 C.2       1 <0>         0.4999
      5 O1         -0.0733    1.2182    2.4172 O.co2     1 <0>        -0.6865
      6 O2          0.3295   -0.5956    3.4427 O.co2     1 <0>        -0.7062
      7 C5         -0.0700   -0.7119   -1.2660 C.2       1 <0>        -0.0983
      8 C6         -0.4159   -0.0797   -2.3901 C.2       1 <0>        -0.1683
      9 C7         -0.2548   -0.7673   -3.7214 C.3       1 <0>        -0.0479
     10 H1          0.1430   -1.7717   -3.5768 H         1 <0>         0.0739
     11 C8         -1.6137   -0.8366   -4.4482 C.3       1 <0>        -0.1163
     12 C9         -1.6051    0.3944   -5.3881 C.3       1 <0>        -0.1243
     13 C10        -0.1339    0.4462   -5.8700 C.3       1 <0>        -0.1149
     14 C11         0.6871    0.0477   -4.6249 C.3       1 <0>        -0.0469
     15 H2          1.0277    0.9405   -4.1005 H         1 <0>         0.0817
     16 C12         1.8684   -0.7946   -5.0323 C.ar      1 <0>        -0.0668
     17 C13         1.6742   -1.9635   -5.7448 C.ar      1 <0>        -0.1175
     18 C14         2.7603   -2.7306   -6.1114 C.ar      1 <0>        -0.1185
     19 C15         4.0488   -2.3378   -5.7720 C.ar      1 <0>        -0.0703
     20 C16         4.2426   -1.1714   -5.0670 C.ar      1 <0>        -0.0580
     21 C17         3.1476   -0.3992   -4.7005 C.ar      1 <0>        -0.1131
     22 C18         5.6114   -0.6763   -4.6793 C.3       1 <0>        -0.0230
     23 C19         6.6361   -1.8054   -4.7678 C.3       1 <0>        -0.1120
     24 C20         6.5112   -2.4655   -6.1459 C.3       1 <0>        -0.1105
     25 C21         5.1880   -3.2268   -6.1974 C.3       1 <0>        -0.0222
     26 C22         4.9414   -3.7139   -7.6266 C.3       1 <0>        -0.1405
     27 C23         5.2635   -4.4336   -5.2599 C.3       1 <0>        -0.1396
     28 C24         5.5682   -0.1455   -3.2450 C.3       1 <0>        -0.1443
     29 C25         6.0245    0.4550   -5.6228 C.3       1 <0>        -0.1378
     30 H3          0.0455    2.0689    0.1371 H         1 <0>         0.0612
     31 H4         -1.3751    1.5517   -0.8024 H         1 <0>         0.0297
     32 H5         -1.4027    1.4614    0.9750 H         1 <0>         0.0875
     33 H6          0.4026   -1.7296    1.1356 H         1 <0>         0.0946
     34 H7          0.3252   -1.7160   -1.3109 H         1 <0>         0.1043
     35 H8         -0.8111    0.9244   -2.3452 H         1 <0>         0.1153
     36 H9         -1.6906   -1.7575   -5.0263 H         1 <0>         0.0631
     37 H10        -2.4331   -0.7647   -3.7329 H         1 <0>         0.0695
     38 H11        -2.2819    0.2432   -6.2290 H         1 <0>         0.0636
     39 H12        -1.8642    1.3005   -4.8404 H         1 <0>         0.0682
     40 H13         0.0282   -0.2675   -6.6778 H         1 <0>         0.0674
     41 H14         0.1267    1.4543   -6.1924 H         1 <0>         0.0638
     42 H15         0.6755   -2.2750   -6.0131 H         1 <0>         0.1182
     43 H16         2.6077   -3.6443   -6.6666 H         1 <0>         0.1177
     44 H17         3.2987    0.5158   -4.1471 H         1 <0>         0.1205
     45 H18         7.6404   -1.4000   -4.6447 H         1 <0>         0.0658
     46 H19         6.4390   -2.5419   -3.9888 H         1 <0>         0.0692
     47 H20         6.5248   -1.7004   -6.9221 H         1 <0>         0.0675
     48 H21         7.3392   -3.1579   -6.2977 H         1 <0>         0.0648
     49 H22         4.8773   -2.8565   -8.2967 H         1 <0>         0.0550
     50 H23         5.7640   -4.3577   -7.9381 H         1 <0>         0.0558
     51 H24         4.0073   -4.2744   -7.6634 H         1 <0>         0.0578
     52 H25         4.3278   -4.9905   -5.3085 H         1 <0>         0.0552
     53 H26         6.0870   -5.0794   -5.5646 H         1 <0>         0.0561
     54 H27         5.4295   -4.0905   -4.2387 H         1 <0>         0.0592
     55 H28         5.2646   -0.9460   -2.5703 H         1 <0>         0.0583
     56 H29         6.5572    0.2138   -2.9607 H         1 <0>         0.0572
     57 H30         4.8521    0.6738   -3.1822 H         1 <0>         0.0603
     58 H31         5.3061    1.2713   -5.5478 H         1 <0>         0.0559
     59 H32         7.0149    0.8161   -5.3453 H         1 <0>         0.0569
     60 H33         6.0470    0.0837   -6.6474 H         1 <0>         0.0561
@<TRIPOS>BOND
     1    1    2 1
     2    1   30 1
     3    1   31 1
     4    1   32 1
     5    2    3 2
     6    2    7 1
     7    3    4 1
     8    3   33 1
     9    4    5 2
    10    4    6 1
    11    7    8 2
    12    7   34 1
    13    8    9 1
    14    8   35 1
    15    9   10 1
    16    9   14 1
    17    9   11 1
    18   11   12 1
    19   11   36 1
    20   11   37 1
    21   12   13 1
    22   12   38 1
    23   12   39 1
    24   13   14 1
    25   13   40 1
    26   13   41 1
    27   14   15 1
    28   14   16 1
    29   16   21 ar
    30   16   17 ar
    31   17   18 ar
    32   17   42 1
    33   18   19 ar
    34   18   43 1
    35   19   25 1
    36   19   20 ar
    37   20   21 ar
    38   20   22 1
    39   21   44 1
    40   22   23 1
    41   22   28 1
    42   22   29 1
    43   23   24 1
    44   23   45 1
    45   23   46 1
    46   24   25 1
    47   24   47 1
    48   24   48 1
    49   25   26 1
    50   25   27 1
    51   26   49 1
    52   26   50 1
    53   26   51 1
    54   27   52 1
    55   27   53 1
    56   27   54 1
    57   28   55 1
    58   28   56 1
    59   28   57 1
    60   29   58 1
    61   29   59 1
    62   29   60 1
@<TRIPOS>MOLECULE
CHEMBL316336
   53    55     0     0     0
SMALL
USER_CHARGES

@<TRIPOS>ATOM
      1 C1          0.2233    0.9673   -0.2122 C.3       1 <0>        -0.1166
      2 C2          0.1196   -0.5106    0.0633 C.ar      1 <0>        -0.0742
      3 C3          0.1296   -1.4113   -0.9773 C.ar      1 <0>        -0.1207
      4 C4          0.0361   -2.7777   -0.7367 C.ar      1 <0>        -0.0635
      5 C5         -0.0646   -3.2432    0.5575 C.ar      1 <0>        -0.0680
      6 C6         -0.0794   -2.3462    1.6136 C.ar      1 <0>        -0.1022
      7 C7          0.0184   -0.9753    1.3772 C.ar      1 <0>        -0.0370
      8 C8          0.0097   -0.0243    2.5033 C.2       1 <0>        -0.1058
      9 C9          1.1007    0.1148    3.2728 C.2       1 <0>        -0.0651
     10 C10         1.0396    0.9335    4.4974 C.2       1 <0>        -0.1103
     11 C11         2.1393    1.6611    4.9236 C.2       1 <0>        -0.1364
     12 C12         1.9658    2.3926    6.0860 C.2       1 <0>        -0.1870
     13 S1          0.2776    2.0254    6.5211 S.3       1 <0>         0.1804
     14 C13        -0.1185    1.0016    5.2501 C.2       1 <0>        -0.2798
     15 C14         2.9248    3.2488    6.7806 C.2       1 <0>         0.5551
     16 O1          4.0570    3.3882    6.3342 O.co2     1 <0>        -0.6697
     17 O2          2.5966    3.8272    7.8092 O.co2     1 <0>        -0.6773
     18 C15        -1.2242    0.7918    2.7908 C.3       1 <0>        -0.1063
     19 C16        -0.1526   -4.7109    0.8863 C.3       1 <0>        -0.0213
     20 C17        -0.5534   -5.5154   -0.3483 C.3       1 <0>        -0.1105
     21 C18         0.3782   -5.1269   -1.5024 C.3       1 <0>        -0.1114
     22 C19         0.0461   -3.6987   -1.9293 C.3       1 <0>        -0.0220
     23 C20        -1.3318   -3.6784   -2.5940 C.3       1 <0>        -0.1381
     24 C21         1.0959   -3.2148   -2.9316 C.3       1 <0>        -0.1418
     25 C22         1.2088   -5.1984    1.3860 C.3       1 <0>        -0.1399
     26 C23        -1.1966   -4.9198    1.9852 C.3       1 <0>        -0.1425
     27 H1          1.2726    1.2624   -0.2214 H         1 <0>         0.0697
     28 H2         -0.2249    1.1886   -1.1809 H         1 <0>         0.0609
     29 H3         -0.3027    1.5199    0.5663 H         1 <0>         0.0725
     30 H4          0.2107   -1.0526   -1.9927 H         1 <0>         0.1191
     31 H5         -0.1632   -2.7114    2.6265 H         1 <0>         0.1217
     32 H6          2.0233   -0.3730    2.9948 H         1 <0>         0.1121
     33 H7          3.0740    1.6574    4.3825 H         1 <0>         0.1370
     34 H8         -1.0609    0.5079    5.0643 H         1 <0>         0.1781
     35 H9         -1.8202    0.2924    3.5547 H         1 <0>         0.0634
     36 H10        -0.9316    1.7797    3.1464 H         1 <0>         0.0733
     37 H11        -1.8131    0.8934    1.8792 H         1 <0>         0.0549
     38 H12        -0.4551   -6.5808   -0.1400 H         1 <0>         0.0653
     39 H13        -1.5849   -5.2870   -0.6164 H         1 <0>         0.0678
     40 H14         1.4152   -5.1792   -1.1706 H         1 <0>         0.0687
     41 H15         0.2261   -5.8057   -2.3415 H         1 <0>         0.0649
     42 H16        -1.5641   -2.6638   -2.9178 H         1 <0>         0.0551
     43 H17        -1.3286   -4.3436   -3.4575 H         1 <0>         0.0560
     44 H18        -2.0845   -4.0132   -1.8802 H         1 <0>         0.0576
     45 H19         2.0782   -3.2183   -2.4591 H         1 <0>         0.0564
     46 H20         1.1062   -3.8787   -3.7961 H         1 <0>         0.0560
     47 H21         0.8513   -2.2026   -3.2538 H         1 <0>         0.0583
     48 H22         1.4892   -4.6400    2.2791 H         1 <0>         0.0572
     49 H23         1.1492   -6.2602    1.6250 H         1 <0>         0.0566
     50 H24         1.9579   -5.0422    0.6097 H         1 <0>         0.0575
     51 H25        -2.1665   -4.5646    1.6372 H         1 <0>         0.0554
     52 H26        -1.2632   -5.9808    2.2260 H         1 <0>         0.0564
     53 H27        -0.9036   -4.3629    2.8752 H         1 <0>         0.0599
@<TRIPOS>BOND
     1    1    2 1
     2    1   27 1
     3    1   28 1
     4    1   29 1
     5    2    7 ar
     6    2    3 ar
     7    3    4 ar
     8    3   30 1
     9    4   22 1
    10    4    5 ar
    11    5    6 ar
    12    5   19 1
    13    6    7 ar
    14    6   31 1
    15    7    8 1
    16    8    9 2
    17    8   18 1
    18    9   10 1
    19    9   32 1
    20   10   14 2
    21   10   11 1
    22   11   12 2
    23   11   33 1
    24   12   13 1
    25   12   15 1
    26   13   14 1
    27   14   34 1
    28   15   16 2
    29   15   17 1
    30   18   35 1
    31   18   36 1
    32   18   37 1
    33   19   20 1
    34   19   25 1
    35   19   26 1
    36   20   21 1
    37   20   38 1
    38   20   39 1
    39   21   22 1
    40   21   40 1
    41   21   41 1
    42   22   23 1
    43   22   24 1
    44   23   42 1
    45   23   43 1
    46   23   44 1
    47   24   45 1
    48   24   46 1
    49   24   47 1
    50   25   48 1
    51   25   49 1
    52   25   50 1
    53   26   51 1
    54   26   52 1
    55   26   53 1
@<TRIPOS>MOLECULE
CHEMBL244565
   78    83     0     0     0
SMALL
USER_CHARGES

@<TRIPOS>ATOM
      1 C1         -0.4415    0.6066    0.0764 C.3       1 <0>        -0.1405
      2 C2         -0.1726   -0.8958    0.1841 C.3       1 <0>        -0.0210
      3 C3         -1.5023   -1.6393    0.2873 C.3       1 <0>        -0.1115
      4 C4         -2.1357   -1.3096    1.6443 C.3       1 <0>        -0.1117
      5 C5         -1.3082   -1.9794    2.7387 C.3       1 <0>        -0.0239
      6 C6          0.1533   -1.6519    2.5759 C.ar      1 <0>        -0.0272
      7 C7          0.6786   -1.1626    1.3989 C.ar      1 <0>        -0.0755
      8 C8          2.0389   -0.9066    1.2996 C.ar      1 <0>        -0.0558
      9 C9          2.8808   -1.1162    2.3887 C.ar      1 <0>        -0.1334
     10 C10         2.3350   -1.5802    3.5920 C.ar      1 <0>         0.1930
     11 C11         0.9840   -1.8571    3.6720 C.ar      1 <0>        -0.1394
     12 N1          3.1530   -1.7206    4.7179 N.pl3     1 <0>        -0.6188
     13 C12         3.8263   -0.5919    5.2051 C.ar      1 <0>         0.1951
     14 C13         3.5776   -0.1569    6.4963 C.ar      1 <0>        -0.1428
     15 C14         4.1978    0.9830    6.9781 C.ar      1 <0>        -0.0211
     16 C15         5.0651    1.6960    6.1703 C.ar      1 <0>        -0.6796
     17 C16         5.3353    1.2659    4.8874 C.ar      1 <0>         0.0042
     18 C17         4.7349    0.1010    4.3950 C.ar      1 <0>         0.0885
     19 N2          5.0854   -0.3517    3.1648 N.2       1 <0>        -0.5097
     20 C18         4.3267   -0.8703    2.2666 C.2       1 <0>         0.3272
     21 C19         4.9663   -1.2561    0.9907 C.ar      1 <0>        -0.0960
     22 C20         6.1523   -0.6363    0.5885 C.ar      1 <0>        -0.0798
     23 C21         6.7479   -0.9947   -0.5993 C.ar      1 <0>        -0.0972
     24 C22         6.1663   -1.9798   -1.4034 C.ar      1 <0>        -0.1044
     25 C23         4.9798   -2.6001   -1.0003 C.ar      1 <0>        -0.0942
     26 C24         4.3878   -2.2446    0.1903 C.ar      1 <0>        -0.1004
     27 C25         6.8040   -2.3640   -2.6769 C.2       1 <0>         0.5167
     28 O1          7.8416   -1.8211   -3.0295 O.co2     1 <0>        -0.6829
     29 O2          6.2952   -3.2256   -3.3801 O.co2     1 <0>        -0.6839
     30 S1          5.8293    3.1607    6.7829 S.o2      1 <0>         2.6940
     31 O3          6.1739    3.9440    5.6484 O.2       1 <0>        -0.9488
     32 O4          4.9929    3.6512    7.8217 O.2       1 <0>        -0.9534
     33 N3          7.2538    2.7083    7.4960 N.pl3     1 <0>        -1.0003
     34 C26         7.3061    2.3471    8.9215 C.3       1 <0>         0.0867
     35 C27         8.0225    0.9982    9.0526 C.3       1 <0>         0.0461
     36 O5          9.2756    1.0623    8.3675 O.3       1 <0>        -0.3758
     37 C28         9.1626    1.2911    6.9608 C.3       1 <0>         0.0456
     38 C29         8.5036    2.6496    6.7213 C.3       1 <0>         0.0857
     39 C30         3.3028   -3.0213    5.3751 C.3       1 <0>         0.1095
     40 C31        -1.7862   -1.4856    4.1057 C.3       1 <0>        -0.1413
     41 C32        -1.4973   -3.4955    2.6571 C.3       1 <0>        -0.1393
     42 C33         0.5720   -1.3660   -1.0670 C.3       1 <0>        -0.1475
     43 H1          0.5049    1.1393   -0.0165 H         1 <0>         0.0573
     44 H2         -1.0571    0.8035   -0.8013 H         1 <0>         0.0602
     45 H3         -0.9639    0.9472    0.9704 H         1 <0>         0.0565
     46 H4         -2.1660   -1.3180   -0.5155 H         1 <0>         0.0693
     47 H5         -1.3293   -2.7130    0.2139 H         1 <0>         0.0705
     48 H6         -2.1376   -0.2301    1.7953 H         1 <0>         0.0698
     49 H7         -3.1573   -1.6886    1.6736 H         1 <0>         0.0680
     50 H8          2.4482   -0.5418    0.3691 H         1 <0>         0.1384
     51 H9          0.5692   -2.2363    4.5943 H         1 <0>         0.1278
     52 H10         2.8984   -0.7088    7.1291 H         1 <0>         0.1339
     53 H11         4.0037    1.3166    7.9868 H         1 <0>         0.1410
     54 H12         6.0113    1.8294    4.2615 H         1 <0>         0.1467
     55 H13         6.6014    0.1245    1.2097 H         1 <0>         0.1251
     56 H14         7.6642   -0.5150   -0.9104 H         1 <0>         0.1313
     57 H15         4.5300   -3.3607   -1.6212 H         1 <0>         0.1307
     58 H16         3.4737   -2.7267    0.5039 H         1 <0>         0.1179
     59 H17         7.8555    3.1097    9.4735 H         1 <0>         0.0848
     60 H18         6.2936    2.2650    9.3168 H         1 <0>         0.0985
     61 H19         8.1944    0.7781   10.1062 H         1 <0>         0.1064
     62 H20         7.4063    0.2144    8.6120 H         1 <0>         0.0570
     63 H21        10.1548    1.2818    6.5096 H         1 <0>         0.1099
     64 H22         8.5506    0.5084    6.5126 H         1 <0>         0.0592
     65 H23         8.2837    2.7677    5.6603 H         1 <0>         0.1020
     66 H24         9.1756    3.4432    7.0480 H         1 <0>         0.0853
     67 H25         4.1400   -3.5590    4.9300 H         1 <0>         0.0486
     68 H26         3.4911   -2.8717    6.4382 H         1 <0>         0.0665
     69 H27         2.3888   -3.6010    5.2460 H         1 <0>         0.0692
     70 H28        -2.8383   -1.7393    4.2361 H         1 <0>         0.0591
     71 H29        -1.1978   -1.9616    4.8901 H         1 <0>         0.0570
     72 H30        -1.6632   -0.4042    4.1647 H         1 <0>         0.0566
     73 H31        -1.1677   -3.8507    1.6807 H         1 <0>         0.0617
     74 H32        -0.9079   -3.9777    3.4370 H         1 <0>         0.0548
     75 H33        -2.5509   -3.7383    2.7953 H         1 <0>         0.0594
     76 H34         1.5179   -0.8307   -1.1497 H         1 <0>         0.0635
     77 H35         0.7654   -2.4362   -0.9940 H         1 <0>         0.0602
     78 H36        -0.0368   -1.1662   -1.9488 H         1 <0>         0.0606
@<TRIPOS>BOND
     1    1    2 1
     2    1   43 1
     3    1   44 1
     4    1   45 1
     5    2    7 1
     6    2    3 1
     7    2   42 1
     8    3    4 1
     9    3   46 1
    10    3   47 1
    11    4    5 1
    12    4   48 1
    13    4   49 1
    14    5    6 1
    15    5   40 1
    16    5   41 1
    17    6   11 ar
    18    6    7 ar
    19    7    8 ar
    20    8    9 ar
    21    8   50 1
    22    9   20 1
    23    9   10 ar
    24   10   11 ar
    25   10   12 1
    26   11   51 1
    27   12   13 1
    28   12   39 1
    29   13   18 ar
    30   13   14 ar
    31   14   15 ar
    32   14   52 1
    33   15   16 ar
    34   15   53 1
    35   16   17 ar
    36   16   30 1
    37   17   18 ar
    38   17   54 1
    39   18   19 1
    40   19   20 2
    41   20   21 1
    42   21   26 ar
    43   21   22 ar
    44   22   23 ar
    45   22   55 1
    46   23   24 ar
    47   23   56 1
    48   24   25 ar
    49   24   27 1
    50   25   26 ar
    51   25   57 1
    52   26   58 1
    53   27   28 2
    54   27   29 1
    55   30   31 2
    56   30   32 2
    57   30   33 1
    58   33   38 1
    59   33   34 1
    60   34   35 1
    61   34   59 1
    62   34   60 1
    63   35   36 1
    64   35   61 1
    65   35   62 1
    66   36   37 1
    67   37   38 1
    68   37   63 1
    69   37   64 1
    70   38   65 1
    71   38   66 1
    72   39   67 1
    73   39   68 1
    74   39   69 1
    75   40   70 1
    76   40   71 1
    77   40   72 1
    78   41   73 1
    79   41   74 1
    80   41   75 1
    81   42   76 1
    82   42   77 1
    83   42   78 1
@<TRIPOS>MOLECULE
CHEMBL397512
   77    82     0     0     0
SMALL
USER_CHARGES

@<TRIPOS>ATOM
      1 C1         -0.4415    0.6066    0.0764 C.3       1 <0>        -0.1405
      2 C2         -0.1726   -0.8958    0.1841 C.3       1 <0>        -0.0208
      3 C3         -1.5023   -1.6393    0.2873 C.3       1 <0>        -0.1114
      4 C4         -2.1357   -1.3096    1.6443 C.3       1 <0>        -0.1117
      5 C5         -1.3082   -1.9794    2.7387 C.3       1 <0>        -0.0239
      6 C6          0.1533   -1.6519    2.5759 C.ar      1 <0>        -0.0275
      7 C7          0.6786   -1.1626    1.3989 C.ar      1 <0>        -0.0758
      8 C8          2.0389   -0.9066    1.2996 C.ar      1 <0>        -0.0560
      9 C9          2.8808   -1.1162    2.3887 C.ar      1 <0>        -0.1328
     10 C10         2.3350   -1.5802    3.5920 C.ar      1 <0>         0.1933
     11 C11         0.9840   -1.8571    3.6720 C.ar      1 <0>        -0.1396
     12 N1          3.1530   -1.7206    4.7179 N.pl3     1 <0>        -0.6189
     13 C12         3.8263   -0.5919    5.2051 C.ar      1 <0>         0.1946
     14 C13         3.5776   -0.1569    6.4963 C.ar      1 <0>        -0.1439
     15 C14         4.1978    0.9830    6.9781 C.ar      1 <0>        -0.0199
     16 C15         5.0651    1.6960    6.1703 C.ar      1 <0>        -0.6792
     17 C16         5.3353    1.2659    4.8874 C.ar      1 <0>         0.0060
     18 C17         4.7349    0.1010    4.3950 C.ar      1 <0>         0.0866
     19 N2          5.0854   -0.3517    3.1648 N.2       1 <0>        -0.5084
     20 C18         4.3267   -0.8703    2.2666 C.2       1 <0>         0.3253
     21 C19         4.9663   -1.2561    0.9907 C.ar      1 <0>        -0.0951
     22 C20         6.1523   -0.6363    0.5885 C.ar      1 <0>        -0.0801
     23 C21         6.7479   -0.9947   -0.5993 C.ar      1 <0>        -0.0971
     24 C22         6.1663   -1.9798   -1.4034 C.ar      1 <0>        -0.1050
     25 C23         4.9798   -2.6001   -1.0003 C.ar      1 <0>        -0.0942
     26 C24         4.3878   -2.2446    0.1903 C.ar      1 <0>        -0.1007
     27 C25         6.8040   -2.3640   -2.6769 C.2       1 <0>         0.5169
     28 O1          7.8416   -1.8211   -3.0295 O.co2     1 <0>        -0.6831
     29 O2          6.2952   -3.2256   -3.3801 O.co2     1 <0>        -0.6842
     30 S1          5.8293    3.1607    6.7829 S.o2      1 <0>         2.7113
     31 O3          6.1739    3.9440    5.6484 O.2       1 <0>        -0.9496
     32 O4          4.9929    3.6512    7.8217 O.2       1 <0>        -0.9540
     33 N3          7.2538    2.7083    7.4960 N.pl3     1 <0>        -1.0119
     34 C26         7.4232    2.3276    8.9059 C.3       1 <0>         0.1183
     35 C27         8.9188    2.0123    9.1188 C.3       1 <0>        -0.1292
     36 C28         9.6044    2.7784    7.9567 C.3       1 <0>        -0.1287
     37 C29         8.5609    2.6144    6.8206 C.3       1 <0>         0.1111
     38 C30         3.3028   -3.0213    5.3751 C.3       1 <0>         0.1096
     39 C31        -1.7862   -1.4856    4.1057 C.3       1 <0>        -0.1413
     40 C32        -1.4973   -3.4955    2.6571 C.3       1 <0>        -0.1392
     41 C33         0.5720   -1.3660   -1.0670 C.3       1 <0>        -0.1474
     42 H1          0.5049    1.1393   -0.0165 H         1 <0>         0.0573
     43 H2         -1.0571    0.8035   -0.8013 H         1 <0>         0.0601
     44 H3         -0.9639    0.9472    0.9704 H         1 <0>         0.0565
     45 H4         -2.1660   -1.3180   -0.5155 H         1 <0>         0.0692
     46 H5         -1.3293   -2.7130    0.2139 H         1 <0>         0.0705
     47 H6         -2.1376   -0.2301    1.7953 H         1 <0>         0.0698
     48 H7         -3.1573   -1.6886    1.6736 H         1 <0>         0.0678
     49 H8          2.4482   -0.5418    0.3691 H         1 <0>         0.1383
     50 H9          0.5692   -2.2363    4.5943 H         1 <0>         0.1277
     51 H10         2.8984   -0.7088    7.1291 H         1 <0>         0.1335
     52 H11         4.0037    1.3166    7.9868 H         1 <0>         0.1413
     53 H12         6.0113    1.8294    4.2615 H         1 <0>         0.1472
     54 H13         6.6014    0.1245    1.2097 H         1 <0>         0.1252
     55 H14         7.6642   -0.5150   -0.9104 H         1 <0>         0.1312
     56 H15         4.5300   -3.3607   -1.6212 H         1 <0>         0.1306
     57 H16         3.4737   -2.7267    0.5039 H         1 <0>         0.1179
     58 H17         7.1228    3.1530    9.5514 H         1 <0>         0.0737
     59 H18         6.8232    1.4447    9.1262 H         1 <0>         0.0658
     60 H19         9.2590    2.3897   10.0832 H         1 <0>         0.0816
     61 H20         9.1027    0.9411    9.0361 H         1 <0>         0.0767
     62 H21         9.7474    3.8285    8.2117 H         1 <0>         0.0775
     63 H22        10.5512    2.3113    7.6857 H         1 <0>         0.0847
     64 H23         8.6703    1.6425    6.3394 H         1 <0>         0.0713
     65 H24         8.6683    3.4151    6.0890 H         1 <0>         0.0864
     66 H25         4.1400   -3.5590    4.9300 H         1 <0>         0.0484
     67 H26         3.4911   -2.8717    6.4382 H         1 <0>         0.0665
     68 H27         2.3888   -3.6010    5.2460 H         1 <0>         0.0690
     69 H28        -2.8383   -1.7393    4.2361 H         1 <0>         0.0590
     70 H29        -1.1978   -1.9616    4.8901 H         1 <0>         0.0570
     71 H30        -1.6632   -0.4042    4.1647 H         1 <0>         0.0567
     72 H31        -1.1677   -3.8507    1.6807 H         1 <0>         0.0616
     73 H32        -0.9079   -3.9777    3.4370 H         1 <0>         0.0548
     74 H33        -2.5509   -3.7383    2.7953 H         1 <0>         0.0592
     75 H34         1.5179   -0.8307   -1.1497 H         1 <0>         0.0635
     76 H35         0.7654   -2.4362   -0.9940 H         1 <0>         0.0602
     77 H36        -0.0368   -1.1662   -1.9488 H         1 <0>         0.0605
@<TRIPOS>BOND
     1    1    2 1
     2    1   42 1
     3    1   43 1
     4    1   44 1
     5    2    7 1
     6    2    3 1
     7    2   41 1
     8    3    4 1
     9    3   45 1
    10    3   46 1
    11    4    5 1
    12    4   47 1
    13    4   48 1
    14    5    6 1
    15    5   39 1
    16    5   40 1
    17    6   11 ar
    18    6    7 ar
    19    7    8 ar
    20    8    9 ar
    21    8   49 1
    22    9   20 1
    23    9   10 ar
    24   10   11 ar
    25   10   12 1
    26   11   50 1
    27   12   13 1
    28   12   38 1
    29   13   18 ar
    30   13   14 ar
    31   14   15 ar
    32   14   51 1
    33   15   16 ar
    34   15   52 1
    35   16   17 ar
    36   16   30 1
    37   17   18 ar
    38   17   53 1
    39   18   19 1
    40   19   20 2
    41   20   21 1
    42   21   26 ar
    43   21   22 ar
    44   22   23 ar
    45   22   54 1
    46   23   24 ar
    47   23   55 1
    48   24   25 ar
    49   24   27 1
    50   25   26 ar
    51   25   56 1
    52   26   57 1
    53   27   28 2
    54   27   29 1
    55   30   31 2
    56   30   32 2
    57   30   33 1
    58   33   37 1
    59   33   34 1
    60   34   35 1
    61   34   58 1
    62   34   59 1
    63   35   36 1
    64   35   60 1
    65   35   61 1
    66   36   37 1
    67   36   62 1
    68   36   63 1
    69   37   64 1
    70   37   65 1
    71   38   66 1
    72   38   67 1
    73   38   68 1
    74   39   69 1
    75   39   70 1
    76   39   71 1
    77   40   72 1
    78   40   73 1
    79   40   74 1
    80   41   75 1
    81   41   76 1
    82   41   77 1
@<TRIPOS>MOLECULE
CHEMBL101666
   57    59     0     0     0
SMALL
USER_CHARGES

@<TRIPOS>ATOM
      1 C1          0.4577    1.1812    0.2747 C.3       1 <0>        -0.1448
      2 C2          0.2757   -0.3205    0.0451 C.3       1 <0>        -0.0643
      3 C3          1.0135   -1.0966    1.1379 C.3       1 <0>        -0.1409
      4 C4         -1.1916   -0.6613    0.0904 C.ar      1 <0>        -0.0420
      5 C5         -1.9252   -0.4131    1.2280 C.ar      1 <0>        -0.1140
      6 C6         -3.2803   -0.7212    1.2822 C.ar      1 <0>        -0.0491
      7 C7         -3.9034   -1.2793    0.1856 C.ar      1 <0>        -0.0675
      8 C8         -3.1744   -1.5376   -0.9641 C.ar      1 <0>        -0.0812
      9 C9         -1.8166   -1.2259   -1.0243 C.ar      1 <0>        -0.1352
     10 C10        -1.0444   -1.4956   -2.2541 C.2       1 <0>         0.4503
     11 O1         -0.7165   -2.6330   -2.5286 O.2       1 <0>        -0.4545
     12 C11        -0.6699   -0.3804   -3.1522 C.ar      1 <0>        -0.1830
     13 C12        -1.0373    0.9279   -2.8311 C.ar      1 <0>        -0.0799
     14 C13        -0.6888    1.9664   -3.6671 C.ar      1 <0>        -0.1015
     15 C14         0.0320    1.7102   -4.8358 C.ar      1 <0>        -0.0941
     16 C15         0.3994    0.4013   -5.1568 C.ar      1 <0>        -0.1016
     17 C16         0.0556   -0.6361   -4.3175 C.ar      1 <0>        -0.0764
     18 C17         0.4055    2.8237   -5.7328 C.2       1 <0>         0.5165
     19 O2          0.0836    3.9692   -5.4520 O.co2     1 <0>        -0.6810
     20 O3          1.0365    2.5993   -6.7557 O.co2     1 <0>        -0.6809
     21 C18        -5.3707   -1.6210    0.1740 C.3       1 <0>        -0.0217
     22 C19        -5.9186   -1.6870    1.5980 C.3       1 <0>        -0.1104
     23 C20        -5.5211   -0.3996    2.3296 C.3       1 <0>        -0.1118
     24 C21        -4.0125   -0.4261    2.5657 C.3       1 <0>        -0.0233
     25 C22        -3.6820   -1.5085    3.5954 C.3       1 <0>        -0.1388
     26 C23        -3.5619    0.9340    3.1024 C.3       1 <0>        -0.1427
     27 C24        -6.1317   -0.5501   -0.6102 C.3       1 <0>        -0.1410
     28 C25        -5.5673   -2.9776   -0.5055 C.3       1 <0>        -0.1437
     29 H1          1.5189    1.4278    0.2419 H         1 <0>         0.0602
     30 H2         -0.0680    1.7341   -0.5038 H         1 <0>         0.0639
     31 H3          0.0518    1.4516    1.2495 H         1 <0>         0.0554
     32 H4          0.6816   -0.5908   -0.9297 H         1 <0>         0.0784
     33 H5          0.6076   -0.8262    2.1127 H         1 <0>         0.0561
     34 H6          0.8838   -2.1664    0.9743 H         1 <0>         0.0547
     35 H7          2.0747   -0.8500    1.1051 H         1 <0>         0.0595
     36 H8         -1.4428    0.0256    2.0889 H         1 <0>         0.1263
     37 H9         -3.6620   -1.9790   -1.8207 H         1 <0>         0.1246
     38 H10        -1.5950    1.1259   -1.9277 H         1 <0>         0.1217
     39 H11        -0.9733    2.9782   -3.4189 H         1 <0>         0.1321
     40 H12         0.9567    0.2030   -6.0603 H         1 <0>         0.1333
     41 H13         0.3438   -1.6475   -4.5632 H         1 <0>         0.1253
     42 H14        -7.0049   -1.7726    1.5696 H         1 <0>         0.0667
     43 H15        -5.4954   -2.5484    2.1146 H         1 <0>         0.0683
     44 H16        -5.7820    0.4650    1.7193 H         1 <0>         0.0703
     45 H17        -6.0415   -0.3451    3.2858 H         1 <0>         0.0664
     46 H18        -2.6080   -1.5173    3.7812 H         1 <0>         0.0559
     47 H19        -4.2100   -1.2985    4.5255 H         1 <0>         0.0575
     48 H20        -3.9925   -2.4808    3.2129 H         1 <0>         0.0582
     49 H21        -3.7866    1.7071    2.3676 H         1 <0>         0.0586
     50 H22        -4.0896    1.1510    4.0311 H         1 <0>         0.0574
     51 H23        -2.4885    0.9127    3.2908 H         1 <0>         0.0589
     52 H24        -5.7570   -0.5137   -1.6331 H         1 <0>         0.0579
     53 H25        -7.1941   -0.7938   -0.6209 H         1 <0>         0.0578
     54 H26        -5.9863    0.4202   -0.1352 H         1 <0>         0.0595
     55 H27        -5.0185   -3.7423    0.0442 H         1 <0>         0.0565
     56 H28        -6.6280   -3.2285   -0.5159 H         1 <0>         0.0581
     57 H29        -5.1955   -2.9286   -1.5290 H         1 <0>         0.0593
@<TRIPOS>BOND
     1    1    2 1
     2    1   29 1
     3    1   30 1
     4    1   31 1
     5    2    3 1
     6    2    4 1
     7    2   32 1
     8    3   33 1
     9    3   34 1
    10    3   35 1
    11    4    9 ar
    12    4    5 ar
    13    5    6 ar
    14    5   36 1
    15    6   24 1
    16    6    7 ar
    17    7    8 ar
    18    7   21 1
    19    8    9 ar
    20    8   37 1
    21    9   10 1
    22   10   11 2
    23   10   12 1
    24   12   17 ar
    25   12   13 ar
    26   13   14 ar
    27   13   38 1
    28   14   15 ar
    29   14   39 1
    30   15   16 ar
    31   15   18 1
    32   16   17 ar
    33   16   40 1
    34   17   41 1
    35   18   19 2
    36   18   20 1
    37   21   22 1
    38   21   27 1
    39   21   28 1
    40   22   23 1
    41   22   42 1
    42   22   43 1
    43   23   24 1
    44   23   44 1
    45   23   45 1
    46   24   25 1
    47   24   26 1
    48   25   46 1
    49   25   47 1
    50   25   48 1
    51   26   49 1
    52   26   50 1
    53   26   51 1
    54   27   52 1
    55   27   53 1
    56   27   54 1
    57   28   55 1
    58   28   56 1
    59   28   57 1
@<TRIPOS>MOLECULE
CHEMBL79234
   58    60     0     0     0
SMALL
USER_CHARGES

@<TRIPOS>ATOM
      1 C1         -0.7507    1.3661    0.0839 C.3       1 <0>        -0.0995
      2 C2         -0.2189   -0.0427    0.0243 C.2       1 <0>        -0.0797
      3 C3          0.1255   -0.6911    1.1743 C.2       1 <0>        -0.1371
      4 C4          0.1279    0.0016    2.3985 C.2       1 <0>         0.4405
      5 O1         -0.0901    1.3166    2.4208 O.co2     1 <0>        -0.6905
      6 O2          0.3482   -0.6569    3.5365 O.co2     1 <0>        -0.7156
      7 C5         -0.0780   -0.6881   -1.2147 C.2       1 <0>        -0.0786
      8 C6         -0.4221   -0.0404   -2.3633 C.2       1 <0>        -0.1338
      9 C7         -0.2807   -0.6879   -3.6063 C.2       1 <0>        -0.0680
     10 C8         -0.5860   -0.1374   -4.8030 C.2       1 <0>        -0.1149
     11 C9         -0.3081   -1.1186   -5.9185 C.3       1 <0>        -0.0782
     12 C10         0.6092   -2.1902   -5.2883 C.3       1 <0>        -0.1210
     13 C11         0.2399   -2.0943   -3.7928 C.3       1 <0>        -0.0946
     14 C12        -1.1136    1.2214   -4.9921 C.ar      1 <0>        -0.0268
     15 C13        -2.4044    1.4140   -5.4986 C.ar      1 <0>        -0.1112
     16 C14        -2.8817    2.6919   -5.6721 C.ar      1 <0>        -0.1188
     17 C15        -2.0980    3.7955   -5.3492 C.ar      1 <0>        -0.0658
     18 C16        -0.8271    3.6140   -4.8451 C.ar      1 <0>        -0.0581
     19 C17        -0.3339    2.3322   -4.6629 C.ar      1 <0>        -0.1019
     20 C18         0.0647    4.7661   -4.4614 C.3       1 <0>        -0.0229
     21 C19        -0.4275    6.0631   -5.1001 C.3       1 <0>        -0.1100
     22 C20        -1.9204    6.2196   -4.7880 C.3       1 <0>        -0.1129
     23 C21        -2.6907    5.1623   -5.5761 C.3       1 <0>        -0.0224
     24 C22        -4.1519    5.1601   -5.1225 C.3       1 <0>        -0.1424
     25 C23        -2.6268    5.4988   -7.0673 C.3       1 <0>        -0.1376
     26 C24         0.0621    4.9209   -2.9392 C.3       1 <0>        -0.1423
     27 C25         1.4908    4.4798   -4.9359 C.3       1 <0>        -0.1421
     28 H1          0.0827    2.0678    0.1199 H         1 <0>         0.0650
     29 H2         -1.3545    1.5643   -0.8016 H         1 <0>         0.0321
     30 H3         -1.3647    1.4852    0.9766 H         1 <0>         0.0949
     31 H4          0.3964   -1.7361    1.1446 H         1 <0>         0.1078
     32 H5          0.3030   -1.6977   -1.2574 H         1 <0>         0.1120
     33 H6         -0.8032    0.9692   -2.3206 H         1 <0>         0.1243
     34 H7         -1.2371   -1.5713   -6.2650 H         1 <0>         0.0722
     35 H8          0.2021   -0.6204   -6.7428 H         1 <0>         0.0676
     36 H9          0.3816   -3.1795   -5.6852 H         1 <0>         0.0716
     37 H10         1.6595   -1.9428   -5.4424 H         1 <0>         0.0695
     38 H11         1.1213   -2.2574   -3.1725 H         1 <0>         0.0741
     39 H12        -0.5354   -2.8207   -3.5493 H         1 <0>         0.0768
     40 H13        -3.0212    0.5644   -5.7517 H         1 <0>         0.1182
     41 H14        -3.8770    2.8409   -6.0641 H         1 <0>         0.1193
     42 H15         0.6614    2.1912   -4.2680 H         1 <0>         0.1227
     43 H16         0.1243    6.9078   -4.6878 H         1 <0>         0.0663
     44 H17        -0.2807    6.0196   -6.1793 H         1 <0>         0.0666
     45 H18        -2.0892    6.0771   -3.7206 H         1 <0>         0.0710
     46 H19        -2.2550    7.2140   -5.0836 H         1 <0>         0.0650
     47 H20        -4.2029    4.9111   -4.0625 H         1 <0>         0.0582
     48 H21        -4.5843    6.1474   -5.2850 H         1 <0>         0.0562
     49 H22        -4.7095    4.4203   -5.6968 H         1 <0>         0.0574
     50 H23        -3.1922    4.7572   -7.6316 H         1 <0>         0.0542
     51 H24        -3.0548    6.4870   -7.2354 H         1 <0>         0.0561
     52 H25        -1.5879    5.4917   -7.3971 H         1 <0>         0.0574
     53 H26         0.4318    4.0040   -2.4802 H         1 <0>         0.0607
     54 H27         0.7064    5.7537   -2.6576 H         1 <0>         0.0580
     55 H28        -0.9539    5.1151   -2.5955 H         1 <0>         0.0592
     56 H29         1.4959    4.3589   -6.0192 H         1 <0>         0.0539
     57 H30         2.1394    5.3113   -4.6601 H         1 <0>         0.0575
     58 H31         1.8532    3.5652   -4.4665 H         1 <0>         0.0601
@<TRIPOS>BOND
     1    1    2 1
     2    1   28 1
     3    1   29 1
     4    1   30 1
     5    2    3 2
     6    2    7 1
     7    3    4 1
     8    3   31 1
     9    4    5 2
    10    4    6 1
    11    7    8 2
    12    7   32 1
    13    8    9 1
    14    8   33 1
    15    9   13 1
    16    9   10 2
    17   10   11 1
    18   10   14 1
    19   11   12 1
    20   11   34 1
    21   11   35 1
    22   12   13 1
    23   12   36 1
    24   12   37 1
    25   13   38 1
    26   13   39 1
    27   14   19 ar
    28   14   15 ar
    29   15   16 ar
    30   15   40 1
    31   16   17 ar
    32   16   41 1
    33   17   23 1
    34   17   18 ar
    35   18   19 ar
    36   18   20 1
    37   19   42 1
    38   20   21 1
    39   20   26 1
    40   20   27 1
    41   21   22 1
    42   21   43 1
    43   21   44 1
    44   22   23 1
    45   22   45 1
    46   22   46 1
    47   23   24 1
    48   23   25 1
    49   24   47 1
    50   24   48 1
    51   24   49 1
    52   25   50 1
    53   25   51 1
    54   25   52 1
    55   26   53 1
    56   26   54 1
    57   26   55 1
    58   27   56 1
    59   27   57 1
    60   27   58 1
@<TRIPOS>MOLECULE
CHEMBL112715
   55    58     0     0     0
SMALL
USER_CHARGES

@<TRIPOS>ATOM
      1 C1         -0.0187    1.5258    0.0104 C.3       1 <0>        -0.1426
      2 C2          0.0021   -0.0041    0.0020 C.3       1 <0>        -0.0228
      3 C3          0.6935   -0.4914   -1.2697 C.3       1 <0>        -0.1125
      4 C4          0.8989   -2.0067   -1.1582 C.3       1 <0>        -0.1098
      5 C5          1.9621   -2.2714   -0.0941 C.3       1 <0>        -0.0213
      6 C6          1.6287   -1.5413    1.1806 C.ar      1 <0>        -0.0677
      7 C7          0.7315   -0.4976    1.2240 C.ar      1 <0>        -0.0589
      8 C8          0.4736    0.1376    2.4317 C.ar      1 <0>        -0.1237
      9 C9          1.1061   -0.2707    3.5879 C.ar      1 <0>        -0.0925
     10 C10         2.0037   -1.3209    3.5450 C.ar      1 <0>        -0.1058
     11 C11         2.2628   -1.9521    2.3458 C.ar      1 <0>        -0.0840
     12 C12         2.6974   -1.7746    4.8036 C.3       1 <0>         0.3549
     13 O1          1.8491   -1.5291    5.9379 O.3       1 <0>        -0.3578
     14 C13         1.1633   -2.7836    6.1657 C.3       1 <0>         0.0153
     15 C14         2.2656   -3.8135    5.8135 C.3       1 <0>         0.0215
     16 O2          2.9676   -3.1804    4.7247 O.3       1 <0>        -0.3664
     17 C15         3.9907   -1.0189    4.9694 C.ar      1 <0>        -0.1120
     18 C16         5.1564   -1.5197    4.4169 C.ar      1 <0>        -0.1056
     19 C17         6.3438   -0.8338    4.5649 C.ar      1 <0>        -0.0908
     20 C18         6.3676    0.3696    5.2744 C.ar      1 <0>        -0.1224
     21 C19         5.1866    0.8694    5.8291 C.ar      1 <0>        -0.0910
     22 C20         4.0057    0.1752    5.6685 C.ar      1 <0>        -0.1065
     23 C21         7.6339    1.1090    5.4375 C.2       1 <0>         0.5190
     24 O3          8.6660    0.6687    4.9512 O.co2     1 <0>        -0.6869
     25 O4          7.6515    2.1620    6.0590 O.co2     1 <0>        -0.6868
     26 C22         3.3212   -1.7931   -0.6088 C.3       1 <0>        -0.1415
     27 C23         2.0307   -3.7736    0.1880 C.3       1 <0>        -0.1418
     28 C24        -1.4352   -0.5282    0.0264 C.3       1 <0>        -0.1374
     29 H1          1.0039    1.9031    0.0027 H         1 <0>         0.0582
     30 H2         -0.5459    1.8868   -0.8726 H         1 <0>         0.0563
     31 H3         -0.5289    1.8773    0.9072 H         1 <0>         0.0585
     32 H4          0.0697   -0.2681   -2.1352 H         1 <0>         0.0652
     33 H5          1.6591    0.0032   -1.3751 H         1 <0>         0.0701
     34 H6         -0.0373   -2.4838   -0.8684 H         1 <0>         0.0670
     35 H7          1.2323   -2.4035   -2.1171 H         1 <0>         0.0658
     36 H8         -0.2276    0.9584    2.4660 H         1 <0>         0.1214
     37 H9          0.9003    0.2283    4.5234 H         1 <0>         0.1252
     38 H10         2.9646   -2.7724    2.3130 H         1 <0>         0.1274
     39 H11         0.8593   -2.8785    7.2082 H         1 <0>         0.1083
     40 H12         0.3062   -2.8863    5.5001 H         1 <0>         0.0739
     41 H13         2.9317   -3.9701    6.6620 H         1 <0>         0.0777
     42 H14         1.8233   -4.7559    5.4905 H         1 <0>         0.0981
     43 H15         5.1365   -2.4500    3.8687 H         1 <0>         0.1173
     44 H16         7.2530   -1.2261    4.1338 H         1 <0>         0.1275
     45 H17         5.1977    1.7990    6.3787 H         1 <0>         0.1274
     46 H18         3.0912    0.5625    6.0929 H         1 <0>         0.1173
     47 H19         3.2741   -0.7248   -0.8203 H         1 <0>         0.0584
     48 H20         4.0829   -1.9804    0.1481 H         1 <0>         0.0594
     49 H21         3.5749   -2.3332   -1.5210 H         1 <0>         0.0569
     50 H22         2.2908   -4.3038   -0.7282 H         1 <0>         0.0564
     51 H23         2.7886   -3.9666    0.9472 H         1 <0>         0.0615
     52 H24         1.0614   -4.1207    0.5459 H         1 <0>         0.0539
     53 H25        -1.9692   -0.1652   -0.8518 H         1 <0>         0.0563
     54 H26        -1.4246   -1.6181    0.0205 H         1 <0>         0.0572
     55 H27        -1.9356   -0.1745    0.9278 H         1 <0>         0.0550
@<TRIPOS>BOND
     1    1    2 1
     2    1   29 1
     3    1   30 1
     4    1   31 1
     5    2    7 1
     6    2    3 1
     7    2   28 1
     8    3    4 1
     9    3   32 1
    10    3   33 1
    11    4    5 1
    12    4   34 1
    13    4   35 1
    14    5    6 1
    15    5   26 1
    16    5   27 1
    17    6   11 ar
    18    6    7 ar
    19    7    8 ar
    20    8    9 ar
    21    8   36 1
    22    9   10 ar
    23    9   37 1
    24   10   11 ar
    25   10   12 1
    26   11   38 1
    27   12   16 1
    28   12   13 1
    29   12   17 1
    30   13   14 1
    31   14   15 1
    32   14   39 1
    33   14   40 1
    34   15   16 1
    35   15   41 1
    36   15   42 1
    37   17   22 ar
    38   17   18 ar
    39   18   19 ar
    40   18   43 1
    41   19   20 ar
    42   19   44 1
    43   20   21 ar
    44   20   23 1
    45   21   22 ar
    46   21   45 1
    47   22   46 1
    48   23   24 2
    49   23   25 1
    50   26   47 1
    51   26   48 1
    52   26   49 1
    53   27   50 1
    54   27   51 1
    55   27   52 1
    56   28   53 1
    57   28   54 1
    58   28   55 1
@<TRIPOS>MOLECULE
CHEMBL116886
   49    51     0     0     0
SMALL
USER_CHARGES

@<TRIPOS>ATOM
      1 C1         -0.0296    1.9976    0.3175 C.3       1 <0>        -0.1252
      2 C2         -0.0707    0.5201    0.0234 C.ar      1 <0>        -0.0229
      3 C3         -0.1239    0.0748   -1.2798 C.ar      1 <0>        -0.1297
      4 C4         -0.1601   -1.2851   -1.5629 C.ar      1 <0>        -0.0338
      5 C5         -0.1392   -2.1999   -0.5326 C.ar      1 <0>        -0.0800
      6 C6         -0.0894   -1.7566    0.7809 C.ar      1 <0>        -0.0551
      7 C7         -0.0494   -0.3996    1.0645 C.ar      1 <0>        -0.1146
      8 S1          0.0213    0.1548    2.7355 S.3       1 <0>         0.0020
      9 C8          1.7004    0.6432    2.9519 C.ar      1 <0>         0.0929
     10 C9          2.0880    1.2651    4.1391 C.ar      1 <0>        -0.1620
     11 C10         3.3918    1.6430    4.3042 C.ar      1 <0>        -0.0336
     12 C11         4.3006    1.3884    3.2624 C.ar      1 <0>        -0.1787
     13 C12         3.8420    0.7612    2.1004 C.ar      1 <0>         0.1352
     14 N1          2.5794    0.4093    1.9854 N.ar      1 <0>        -0.4855
     15 C13         5.7135    1.7768    3.3929 C.2       1 <0>         0.5245
     16 O1          6.1053    2.3257    4.4139 O.co2     1 <0>        -0.6837
     17 O2          6.4969    1.5510    2.4806 O.co2     1 <0>        -0.6825
     18 C14        -0.1600   -3.6876   -0.7691 C.3       1 <0>        -0.0198
     19 C15        -0.6418   -4.0001   -2.1842 C.3       1 <0>        -0.1098
     20 C16         0.1784   -3.1611   -3.1711 C.3       1 <0>        -0.1122
     21 C17        -0.2256   -1.6970   -3.0106 C.3       1 <0>        -0.0247
     22 C18        -1.6543   -1.5086   -3.5246 C.3       1 <0>        -0.1377
     23 C19         0.7238   -0.8191   -3.8284 C.3       1 <0>        -0.1429
     24 C20         1.2513   -4.2479   -0.5815 C.3       1 <0>        -0.1403
     25 C21        -1.1015   -4.3459    0.2413 C.3       1 <0>        -0.1427
     26 H1          1.0070    2.3330    0.3490 H         1 <0>         0.0739
     27 H2         -0.5630    2.5386   -0.4642 H         1 <0>         0.0640
     28 H3         -0.5032    2.1897    1.2802 H         1 <0>         0.0801
     29 H4         -0.1379    0.7899   -2.0890 H         1 <0>         0.1231
     30 H5         -0.0779   -2.4735    1.5886 H         1 <0>         0.1268
     31 H6          1.3649    1.4467    4.9205 H         1 <0>         0.1297
     32 H7          3.7158    2.1263    5.2141 H         1 <0>         0.1413
     33 H8          4.5301    0.5601    1.2927 H         1 <0>         0.1619
     34 H9         -0.4980   -5.0598   -2.3953 H         1 <0>         0.0662
     35 H10        -1.6980   -3.7470   -2.2766 H         1 <0>         0.0678
     36 H11         1.2407   -3.2747   -2.9550 H         1 <0>         0.0704
     37 H12        -0.0264   -3.4888   -4.1903 H         1 <0>         0.0662
     38 H13        -1.9393   -0.4608   -3.4297 H         1 <0>         0.0559
     39 H14        -1.7057   -1.8057   -4.5721 H         1 <0>         0.0576
     40 H15        -2.3356   -2.1250   -2.9383 H         1 <0>         0.0579
     41 H16         1.7419   -0.9428   -3.4591 H         1 <0>         0.0589
     42 H17         0.6793   -1.1142   -4.8767 H         1 <0>         0.0572
     43 H18         0.4268    0.2252   -3.7319 H         1 <0>         0.0589
     44 H19         1.5912   -4.0441    0.4339 H         1 <0>         0.0574
     45 H20         1.2404   -5.3245   -0.7519 H         1 <0>         0.0565
     46 H21         1.9278   -3.7743   -1.2930 H         1 <0>         0.0589
     47 H22        -2.1065   -3.9423    0.1179 H         1 <0>         0.0556
     48 H23        -1.1193   -5.4227    0.0734 H         1 <0>         0.0573
     49 H24        -0.7496   -4.1416    1.2525 H         1 <0>         0.0595
@<TRIPOS>BOND
     1    1    2 1
     2    1   26 1
     3    1   27 1
     4    1   28 1
     5    2    7 ar
     6    2    3 ar
     7    3    4 ar
     8    3   29 1
     9    4   21 1
    10    4    5 ar
    11    5    6 ar
    12    5   18 1
    13    6    7 ar
    14    6   30 1
    15    7    8 1
    16    8    9 1
    17    9   14 ar
    18    9   10 ar
    19   10   11 ar
    20   10   31 1
    21   11   12 ar
    22   11   32 1
    23   12   13 ar
    24   12   15 1
    25   13   14 ar
    26   13   33 1
    27   15   16 2
    28   15   17 1
    29   18   19 1
    30   18   24 1
    31   18   25 1
    32   19   20 1
    33   19   34 1
    34   19   35 1
    35   20   21 1
    36   20   36 1
    37   20   37 1
    38   21   22 1
    39   21   23 1
    40   22   38 1
    41   22   39 1
    42   22   40 1
    43   23   41 1
    44   23   42 1
    45   23   43 1
    46   24   44 1
    47   24   45 1
    48   24   46 1
    49   25   47 1
    50   25   48 1
    51   25   49 1
@<TRIPOS>MOLECULE
CHEMBL236490
   76    81     0     0     0
SMALL
USER_CHARGES

@<TRIPOS>ATOM
      1 C1          0.0207    1.4875    0.0460 C.3       1 <0>        -0.1400
      2 C2          0.0477   -0.0423    0.0470 C.3       1 <0>        -0.0199
      3 C3         -1.3851   -0.5714    0.0364 C.3       1 <0>        -0.1112
      4 C4         -2.0299   -0.2441    1.3884 C.3       1 <0>        -0.1113
      5 C5         -1.3752   -1.1146    2.4586 C.3       1 <0>        -0.0235
      6 C6          0.1261   -1.0110    2.3833 C.ar      1 <0>        -0.0277
      7 C7          0.7813   -0.5257    1.2715 C.ar      1 <0>        -0.0801
      8 C8          2.1679   -0.4779    1.2499 C.ar      1 <0>        -0.0567
      9 C9          2.9095   -0.9032    2.3490 C.ar      1 <0>        -0.1341
     10 C10         2.2370   -1.3648    3.4878 C.ar      1 <0>         0.2026
     11 C11         0.8566   -1.4252    3.4918 C.ar      1 <0>        -0.1431
     12 N1          2.9661   -1.7283    4.6244 N.pl3     1 <0>        -0.6168
     13 C12         3.7915   -0.7697    5.2340 C.ar      1 <0>         0.1300
     14 C13         3.5577   -0.4102    6.5506 C.ar      1 <0>        -0.1064
     15 C14         4.3296    0.5660    7.1552 C.ar      1 <0>        -0.1122
     16 C15         5.3416    1.1949    6.4412 C.ar      1 <0>         0.1407
     17 C16         5.5973    0.8312    5.1289 C.ar      1 <0>        -0.1183
     18 C17         4.8387   -0.1740    4.5185 C.ar      1 <0>         0.1216
     19 N2          5.1689   -0.5779    3.2660 N.2       1 <0>        -0.5072
     20 C18         4.3803   -0.8906    2.3011 C.2       1 <0>         0.3234
     21 C19         5.0108   -1.2744    1.0201 C.ar      1 <0>        -0.0921
     22 C20         6.2940   -0.8175    0.7087 C.ar      1 <0>        -0.0817
     23 C21         6.8812   -1.1741   -0.4839 C.ar      1 <0>        -0.0977
     24 C22         6.1936   -1.9943   -1.3837 C.ar      1 <0>        -0.1073
     25 C23         4.9097   -2.4517   -1.0714 C.ar      1 <0>        -0.0940
     26 C24         4.3255   -2.0987    0.1237 C.ar      1 <0>        -0.1012
     27 C25         6.8223   -2.3765   -2.6623 C.2       1 <0>         0.5171
     28 O1          7.9452   -1.9760   -2.9355 O.co2     1 <0>        -0.6845
     29 O2          6.2207   -3.0939   -3.4492 O.co2     1 <0>        -0.6845
     30 N3          6.1050    2.1993    7.0491 N.am      1 <0>        -0.6656
     31 C26         5.5318    3.0395    7.9333 C.2       1 <0>         0.5596
     32 O3          4.3746    2.8737    8.2671 O.2       1 <0>        -0.5165
     33 C27         6.3100    4.1626    8.4972 C.ar      1 <0>        -0.1358
     34 C28         7.6371    4.3592    8.1117 C.ar      1 <0>        -0.0853
     35 C29         8.3576    5.4096    8.6414 C.ar      1 <0>        -0.1262
     36 C30         7.7678    6.2670    9.5533 C.ar      1 <0>        -0.0921
     37 C31         6.4528    6.0777    9.9397 C.ar      1 <0>        -0.1279
     38 C32         5.7192    5.0347    9.4132 C.ar      1 <0>        -0.0576
     39 C33         2.8708   -3.0849    5.1691 C.3       1 <0>         0.1118
     40 C34        -1.8437   -0.6530    3.8400 C.3       1 <0>        -0.1411
     41 C35        -1.7912   -2.5717    2.2472 C.3       1 <0>        -0.1391
     42 C36         0.7761   -0.5350   -1.2050 C.3       1 <0>        -0.1469
     43 H1          1.0418    1.8688    0.0344 H         1 <0>         0.0567
     44 H2         -0.5092    1.8409   -0.8385 H         1 <0>         0.0588
     45 H3         -0.4895    1.8425    0.9414 H         1 <0>         0.0562
     46 H4         -1.9478   -0.0919   -0.7646 H         1 <0>         0.0680
     47 H5         -1.3769   -1.6508   -0.1150 H         1 <0>         0.0703
     48 H6         -1.8729    0.8083    1.6247 H         1 <0>         0.0692
     49 H7         -3.0983   -0.4558    1.3462 H         1 <0>         0.0667
     50 H8          2.6767   -0.1076    0.3722 H         1 <0>         0.1356
     51 H9          0.3401   -1.7978    4.3640 H         1 <0>         0.1263
     52 H10         2.7690   -0.8937    7.1080 H         1 <0>         0.1270
     53 H11         4.1447    0.8397    8.1835 H         1 <0>         0.1408
     54 H12         6.3833    1.3242    4.5762 H         1 <0>         0.1335
     55 H13         6.8250   -0.1840    1.4038 H         1 <0>         0.1237
     56 H14         7.8728   -0.8203   -0.7248 H         1 <0>         0.1298
     57 H15         4.3780   -3.0849   -1.7663 H         1 <0>         0.1300
     58 H16         3.3356   -2.4555    0.3670 H         1 <0>         0.1181
     59 H17         7.0465    2.2903    6.8338 H         1 <0>         0.4104
     60 H18         8.0989    3.6903    7.4006 H         1 <0>         0.1273
     61 H19         9.3845    5.5629    8.3440 H         1 <0>         0.1311
     62 H20         8.3365    7.0873    9.9656 H         1 <0>         0.1283
     63 H21         5.9983    6.7505   10.6519 H         1 <0>         0.1310
     64 H22         4.6916    4.8905    9.7126 H         1 <0>         0.1373
     65 H23         3.6304   -3.7159    4.7076 H         1 <0>         0.0447
     66 H24         3.0289   -3.0555    6.2472 H         1 <0>         0.0645
     67 H25         1.8823   -3.4927    4.9578 H         1 <0>         0.0648
     68 H26        -2.9277   -0.7462    3.9059 H         1 <0>         0.0579
     69 H27        -1.3784   -1.2720    4.6071 H         1 <0>         0.0575
     70 H28        -1.5587    0.3882    3.9911 H         1 <0>         0.0564
     71 H29        -1.4686   -2.9020    1.2597 H         1 <0>         0.0613
     72 H30        -1.3258   -3.1967    3.0093 H         1 <0>         0.0550
     73 H31        -2.8754   -2.6545    2.3218 H         1 <0>         0.0583
     74 H32         1.7965   -0.1517   -1.2062 H         1 <0>         0.0632
     75 H33         0.7973   -1.6248   -1.2078 H         1 <0>         0.0600
     76 H34         0.2534   -0.1795   -2.0930 H         1 <0>         0.0593
@<TRIPOS>BOND
     1    1    2 1
     2    1   43 1
     3    1   44 1
     4    1   45 1
     5    2    7 1
     6    2    3 1
     7    2   42 1
     8    3    4 1
     9    3   46 1
    10    3   47 1
    11    4    5 1
    12    4   48 1
    13    4   49 1
    14    5    6 1
    15    5   40 1
    16    5   41 1
    17    6   11 ar
    18    6    7 ar
    19    7    8 ar
    20    8    9 ar
    21    8   50 1
    22    9   20 1
    23    9   10 ar
    24   10   11 ar
    25   10   12 1
    26   11   51 1
    27   12   13 1
    28   12   39 1
    29   13   18 ar
    30   13   14 ar
    31   14   15 ar
    32   14   52 1
    33   15   16 ar
    34   15   53 1
    35   16   17 ar
    36   16   30 1
    37   17   18 ar
    38   17   54 1
    39   18   19 1
    40   19   20 2
    41   20   21 1
    42   21   26 ar
    43   21   22 ar
    44   22   23 ar
    45   22   55 1
    46   23   24 ar
    47   23   56 1
    48   24   25 ar
    49   24   27 1
    50   25   26 ar
    51   25   57 1
    52   26   58 1
    53   27   28 2
    54   27   29 1
    55   30   31 am
    56   30   59 1
    57   31   32 2
    58   31   33 1
    59   33   38 ar
    60   33   34 ar
    61   34   35 ar
    62   34   60 1
    63   35   36 ar
    64   35   61 1
    65   36   37 ar
    66   36   62 1
    67   37   38 ar
    68   37   63 1
    69   38   64 1
    70   39   65 1
    71   39   66 1
    72   39   67 1
    73   40   68 1
    74   40   69 1
    75   40   70 1
    76   41   71 1
    77   41   72 1
    78   41   73 1
    79   42   74 1
    80   42   75 1
    81   42   76 1
@<TRIPOS>MOLECULE
CHEMBL396661
   82    86     0     0     0
SMALL
USER_CHARGES

@<TRIPOS>ATOM
      1 C1          1.0119   -1.4979   -9.4318 C.3       1 <0>        -0.1564
      2 C2          1.0210   -2.6585   -8.4350 C.3       1 <0>        -0.1172
      3 C3          1.2824   -2.1196   -7.0271 C.3       1 <0>        -0.1107
      4 C4          1.2915   -3.2802   -6.0303 C.3       1 <0>        -0.6272
      5 S1          1.6015   -2.6412   -4.3611 S.o2      1 <0>         2.6047
      6 O1          2.9538   -2.2217   -4.2409 O.2       1 <0>        -0.9558
      7 O2          0.5395   -1.7870   -3.9590 O.2       1 <0>        -0.9469
      8 N1          1.4792   -3.9624   -3.3701 N.pl3     1 <0>        -1.0613
      9 C5          0.2563   -4.6312   -3.2432 C.ar      1 <0>         0.1159
     10 C6         -0.7710   -4.0617   -2.5017 C.ar      1 <0>        -0.0988
     11 C7         -1.9888   -4.7100   -2.3916 C.ar      1 <0>        -0.1173
     12 C8         -2.1892   -5.9297   -3.0148 C.ar      1 <0>         0.1503
     13 C9         -1.1469   -6.5336   -3.7303 C.ar      1 <0>         0.1123
     14 C10         0.0716   -5.8570   -3.8621 C.ar      1 <0>        -0.0954
     15 N2         -1.2707   -7.7751   -4.2628 N.2       1 <0>        -0.5092
     16 C11        -2.2850   -8.2811   -4.8682 C.2       1 <0>         0.3268
     17 C12        -3.5767   -7.6160   -5.1039 C.ar      1 <0>        -0.1340
     18 C13        -4.2485   -7.7952   -6.3103 C.ar      1 <0>        -0.0577
     19 C14        -5.4826   -7.1990   -6.5269 C.ar      1 <0>        -0.0779
     20 C15        -6.0554   -6.4231   -5.5419 C.ar      1 <0>        -0.0286
     21 C16        -5.3844   -6.2229   -4.3404 C.ar      1 <0>        -0.1424
     22 C17        -4.1496   -6.8023   -4.1183 C.ar      1 <0>         0.1997
     23 N3         -3.4496   -6.5463   -2.9348 N.pl3     1 <0>        -0.6130
     24 C18        -4.0197   -6.9132   -1.6361 C.3       1 <0>         0.1362
     25 C19        -4.8461   -5.7454   -1.0936 C.3       1 <0>        -0.1767
     26 C20        -7.4062   -5.7752   -5.7028 C.3       1 <0>        -0.0236
     27 C21        -7.8048   -5.7186   -7.1757 C.3       1 <0>        -0.1113
     28 C22        -7.6395   -7.1195   -7.7765 C.3       1 <0>        -0.1114
     29 C23        -6.1474   -7.4350   -7.8584 C.3       1 <0>        -0.0203
     30 C24        -5.4985   -6.5362   -8.9129 C.3       1 <0>        -0.1398
     31 C25        -5.9628   -8.8993   -8.2621 C.3       1 <0>        -0.1470
     32 C26        -7.3537   -4.3536   -5.1398 C.3       1 <0>        -0.1411
     33 C27        -8.4488   -6.5847   -4.9291 C.3       1 <0>        -0.1392
     34 C28        -2.1406   -9.6619   -5.3766 C.ar      1 <0>        -0.0946
     35 C29        -0.8700  -10.1788   -5.6430 C.ar      1 <0>        -0.0808
     36 C30        -0.7350  -11.4641   -6.1163 C.ar      1 <0>        -0.0980
     37 C31        -1.8697  -12.2527   -6.3305 C.ar      1 <0>        -0.1055
     38 C32        -3.1409  -11.7350   -6.0638 C.ar      1 <0>        -0.0942
     39 C33        -3.2744  -10.4515   -5.5851 C.ar      1 <0>        -0.1005
     40 C34        -1.7256  -13.6302   -6.8382 C.2       1 <0>         0.5166
     41 O3         -0.6137  -14.0827   -7.0718 O.co2     1 <0>        -0.6837
     42 O4         -2.7182  -14.3198   -7.0255 O.co2     1 <0>        -0.6841
     43 H1          0.2262   -0.7925   -9.1611 H         1 <0>         0.0562
     44 H2          1.9774   -0.9924   -9.4098 H         1 <0>         0.0561
     45 H3          0.8257   -1.8818  -10.4348 H         1 <0>         0.0584
     46 H4          0.0556   -3.1640   -8.4571 H         1 <0>         0.0674
     47 H5          1.8067   -3.3638   -8.7057 H         1 <0>         0.0675
     48 H6          2.2479   -1.6141   -7.0050 H         1 <0>         0.0775
     49 H7          0.4967   -1.4142   -6.7564 H         1 <0>         0.0799
     50 H8          0.3261   -3.7857   -6.0523 H         1 <0>         0.1338
     51 H9          2.0772   -3.9856   -6.3010 H         1 <0>         0.1356
     52 H10         2.2552   -4.2728   -2.8777 H         1 <0>         0.4247
     53 H11        -0.6190   -3.1121   -2.0101 H         1 <0>         0.1379
     54 H12        -2.7861   -4.2624   -1.8168 H         1 <0>         0.1339
     55 H13         0.8704   -6.2932   -4.4435 H         1 <0>         0.1371
     56 H14        -3.8048   -8.4035   -7.0846 H         1 <0>         0.1359
     57 H15        -5.8325   -5.6084   -3.5736 H         1 <0>         0.1302
     58 H16        -4.6599   -7.7874   -1.7542 H         1 <0>         0.0738
     59 H17        -3.2149   -7.1439   -0.9381 H         1 <0>         0.0725
     60 H18        -5.2703   -6.0184   -0.1273 H         1 <0>         0.0638
     61 H19        -4.2059   -4.8712   -0.9754 H         1 <0>         0.0595
     62 H20        -5.6509   -5.5147   -1.7915 H         1 <0>         0.0585
     63 H21        -8.8443   -5.4024   -7.2627 H         1 <0>         0.0670
     64 H22        -7.1612   -5.0147   -7.7033 H         1 <0>         0.0692
     65 H23        -8.1356   -7.8526   -7.1405 H         1 <0>         0.0703
     66 H24        -8.0753   -7.1444   -8.7753 H         1 <0>         0.0682
     67 H25        -4.4369   -6.7719   -8.9877 H         1 <0>         0.0564
     68 H26        -5.9769   -6.7042   -9.8777 H         1 <0>         0.0591
     69 H27        -5.6193   -5.4920   -8.6243 H         1 <0>         0.0563
     70 H28        -6.4155   -9.5437   -7.5085 H         1 <0>         0.0601
     71 H29        -6.4425   -9.0739   -9.2251 H         1 <0>         0.0596
     72 H30        -4.8989   -9.1233   -8.3402 H         1 <0>         0.0630
     73 H31        -6.6045   -3.7758   -5.6811 H         1 <0>         0.0567
     74 H32        -8.3293   -3.8812   -5.2543 H         1 <0>         0.0583
     75 H33        -7.0899   -4.3909   -4.0828 H         1 <0>         0.0570
     76 H34        -8.1791   -6.6098   -3.8733 H         1 <0>         0.0551
     77 H35        -9.4278   -6.1192   -5.0430 H         1 <0>         0.0586
     78 H36        -8.4824   -7.6017   -5.3198 H         1 <0>         0.0612
     79 H37         0.0062   -9.5694   -5.4778 H         1 <0>         0.1242
     80 H38         0.2470  -11.8633   -6.3224 H         1 <0>         0.1300
     81 H39        -4.0176  -12.3437   -6.2291 H         1 <0>         0.1302
     82 H40        -4.2559  -10.0530   -5.3749 H         1 <0>         0.1184
@<TRIPOS>BOND
     1    1    2 1
     2    1   43 1
     3    1   44 1
     4    1   45 1
     5    2    3 1
     6    2   46 1
     7    2   47 1
     8    3    4 1
     9    3   48 1
    10    3   49 1
    11    4    5 1
    12    4   50 1
    13    4   51 1
    14    5    6 2
    15    5    7 2
    16    5    8 1
    17    8    9 1
    18    8   52 1
    19    9   14 ar
    20    9   10 ar
    21   10   11 ar
    22   10   53 1
    23   11   12 ar
    24   11   54 1
    25   12   23 1
    26   12   13 ar
    27   13   14 ar
    28   13   15 1
    29   14   55 1
    30   15   16 2
    31   16   17 1
    32   16   34 1
    33   17   22 ar
    34   17   18 ar
    35   18   19 ar
    36   18   56 1
    37   19   29 1
    38   19   20 ar
    39   20   21 ar
    40   20   26 1
    41   21   22 ar
    42   21   57 1
    43   22   23 1
    44   23   24 1
    45   24   25 1
    46   24   58 1
    47   24   59 1
    48   25   60 1
    49   25   61 1
    50   25   62 1
    51   26   27 1
    52   26   32 1
    53   26   33 1
    54   27   28 1
    55   27   63 1
    56   27   64 1
    57   28   29 1
    58   28   65 1
    59   28   66 1
    60   29   30 1
    61   29   31 1
    62   30   67 1
    63   30   68 1
    64   30   69 1
    65   31   70 1
    66   31   71 1
    67   31   72 1
    68   32   73 1
    69   32   74 1
    70   32   75 1
    71   33   76 1
    72   33   77 1
    73   33   78 1
    74   34   39 ar
    75   34   35 ar
    76   35   36 ar
    77   35   79 1
    78   36   37 ar
    79   36   80 1
    80   37   38 ar
    81   37   40 1
    82   38   39 ar
    83   38   81 1
    84   39   82 1
    85   40   41 2
    86   40   42 1
@<TRIPOS>MOLECULE
CHEMBL396661__1
   81    85     0     0     0
SMALL
USER_CHARGES

@<TRIPOS>ATOM
      1 C1          1.2188    1.3121    1.0879 C.3       1 <0>        -0.1539
      2 C2          1.1943   -0.2152    1.0000 C.3       1 <0>        -0.1170
      3 C3          1.6577   -0.6534   -0.3907 C.3       1 <0>        -0.1114
      4 C4          1.6332   -2.1807   -0.4787 C.3       1 <0>        -0.5987
      5 S1          2.1827   -2.7003   -2.1276 S.o2      1 <0>         2.5235
      6 O1          1.2270   -2.3148   -3.1060 O.2       1 <0>        -1.0312
      7 O2          3.5602   -2.3985   -2.3021 O.2       1 <0>        -1.0313
      8 N1          2.1130   -4.3546   -2.0977 N.2       1 <0>        -1.0984
      9 C5          2.4770   -5.0910   -3.2309 C.ar      1 <0>         0.2815
     10 C6          2.9018   -4.4325   -4.3778 C.ar      1 <0>        -0.2444
     11 C7          3.2830   -5.1580   -5.4931 C.ar      1 <0>        -0.0730
     12 C8          3.2392   -6.5415   -5.4745 C.ar      1 <0>         0.0398
     13 C9          2.7727   -7.2151   -4.3380 C.ar      1 <0>         0.1238
     14 C10         2.4181   -6.4750   -3.2039 C.ar      1 <0>        -0.1481
     15 N2          2.6138   -8.5622   -4.3204 N.2       1 <0>        -0.4772
     16 C11         3.3908   -9.4592   -4.8133 C.2       1 <0>         0.2802
     17 C12         4.6453   -9.2156   -5.5437 C.ar      1 <0>        -0.1197
     18 C13         5.7451  -10.0465   -5.3461 C.ar      1 <0>        -0.0644
     19 C14         6.9200   -9.8439   -6.0560 C.ar      1 <0>        -0.0901
     20 C15         7.0049   -8.8140   -6.9685 C.ar      1 <0>        -0.0396
     21 C16         5.9185   -7.9674   -7.1599 C.ar      1 <0>        -0.1503
     22 C17         4.7475   -8.1526   -6.4500 C.ar      1 <0>         0.2160
     23 N3          3.6804   -7.2606   -6.5985 N.pl3     1 <0>        -0.6052
     24 C18         3.0352   -7.0788   -7.9012 C.3       1 <0>         0.1415
     25 C19         3.7397   -5.9572   -8.6671 C.3       1 <0>        -0.1753
     26 C20         8.2402   -8.5612   -7.7932 C.3       1 <0>        -0.0206
     27 C21         9.4503   -9.2626   -7.1806 C.3       1 <0>        -0.1097
     28 C22         9.0829  -10.7293   -6.9265 C.3       1 <0>        -0.1085
     29 C23         8.0688  -10.7808   -5.7857 C.3       1 <0>        -0.0172
     30 C24         8.7559  -10.3735   -4.4807 C.3       1 <0>        -0.1393
     31 C25         7.5346  -12.2081   -5.6496 C.3       1 <0>        -0.1446
     32 C26         8.5070   -7.0559   -7.8531 C.3       1 <0>        -0.1406
     33 C27         8.0161   -9.0893   -9.2116 C.3       1 <0>        -0.1368
     34 C28         2.9868  -10.8694   -4.6289 C.ar      1 <0>        -0.0702
     35 C29         2.1395  -11.2210   -3.5750 C.ar      1 <0>        -0.0877
     36 C30         1.7630  -12.5336   -3.4029 C.ar      1 <0>        -0.0960
     37 C31         2.2286  -13.5153   -4.2830 C.ar      1 <0>        -0.1224
     38 C32         3.0765  -13.1629   -5.3375 C.ar      1 <0>        -0.0947
     39 C33         3.4477  -11.8492   -5.5121 C.ar      1 <0>        -0.1093
     40 C34         1.8258  -14.9224   -4.0987 C.2       1 <0>         0.5205
     41 O3          1.0845  -15.2305   -3.1760 O.co2     1 <0>        -0.6896
     42 O4          2.2332  -15.7809   -4.8686 O.co2     1 <0>        -0.6918
     43 H1          2.2336    1.6698    0.9136 H         1 <0>         0.0540
     44 H2          0.5517    1.7302    0.3341 H         1 <0>         0.0542
     45 H3          0.8887    1.6243    2.0787 H         1 <0>         0.0522
     46 H4          1.8615   -0.6333    1.7538 H         1 <0>         0.0635
     47 H5          0.1796   -0.5729    1.1743 H         1 <0>         0.0636
     48 H6          0.9906   -0.2354   -1.1445 H         1 <0>         0.0706
     49 H7          2.6725   -0.2957   -0.5651 H         1 <0>         0.0705
     50 H8          2.3004   -2.5988    0.2751 H         1 <0>         0.1192
     51 H9          0.6185   -2.5385   -0.3044 H         1 <0>         0.1195
     52 H10         2.9344   -3.3533   -4.3994 H         1 <0>         0.1024
     53 H11         3.6157   -4.6424   -6.3819 H         1 <0>         0.1060
     54 H12         2.0938   -6.9834   -2.3080 H         1 <0>         0.1202
     55 H13         5.6832  -10.8557   -4.6336 H         1 <0>         0.1300
     56 H14         5.9908   -7.1569   -7.8701 H         1 <0>         0.1244
     57 H15         3.1009   -8.0052   -8.4717 H         1 <0>         0.0610
     58 H16         1.9876   -6.8161   -7.7542 H         1 <0>         0.0683
     59 H17         3.6740   -5.0307   -8.0966 H         1 <0>         0.0609
     60 H18         4.7873   -6.2199   -8.8140 H         1 <0>         0.0533
     61 H19         3.2596   -5.8219   -9.6363 H         1 <0>         0.0542
     62 H20        10.2931   -9.2095   -7.8697 H         1 <0>         0.0618
     63 H21         9.7150   -8.7822   -6.2386 H         1 <0>         0.0684
     64 H22         8.6447  -11.1593   -7.8272 H         1 <0>         0.0680
     65 H23         9.9763  -11.2888   -6.6492 H         1 <0>         0.0630
     66 H24         8.0397  -10.4276   -3.6608 H         1 <0>         0.0577
     67 H25         9.5877  -11.0492   -4.2818 H         1 <0>         0.0538
     68 H26         9.1297   -9.3535   -4.5699 H         1 <0>         0.0559
     69 H27         7.0358  -12.4990   -6.5740 H         1 <0>         0.0583
     70 H28         8.3630  -12.8890   -5.4539 H         1 <0>         0.0541
     71 H29         6.8246  -12.2531   -4.8238 H         1 <0>         0.0639
     72 H30         8.6569   -6.6730   -6.8437 H         1 <0>         0.0573
     73 H31         9.4002   -6.8686   -8.4491 H         1 <0>         0.0529
     74 H32         7.6539   -6.5536   -8.3093 H         1 <0>         0.0578
     75 H33         7.1657   -8.5760   -9.6603 H         1 <0>         0.0547
     76 H34         8.9078   -8.9083   -9.8118 H         1 <0>         0.0533
     77 H35         7.8152  -10.1600   -9.1731 H         1 <0>         0.0593
     78 H36         1.7802  -10.4627   -2.8951 H         1 <0>         0.1263
     79 H37         1.1084  -12.8053   -2.5880 H         1 <0>         0.1260
     80 H38         3.4364  -13.9208   -6.0176 H         1 <0>         0.1245
     81 H39         4.0991  -11.5762   -6.3292 H         1 <0>         0.1164
@<TRIPOS>BOND
     1    1    2 1
     2    1   43 1
     3    1   44 1
     4    1   45 1
     5    2    3 1
     6    2   46 1
     7    2   47 1
     8    3    4 1
     9    3   48 1
    10    3   49 1
    11    4    5 1
    12    4   50 1
    13    4   51 1
    14    5    6 2
    15    5    7 2
    16    5    8 1
    17    8    9 1
    18    9   14 ar
    19    9   10 ar
    20   10   11 ar
    21   10   52 1
    22   11   12 ar
    23   11   53 1
    24   12   23 1
    25   12   13 ar
    26   13   14 ar
    27   13   15 1
    28   14   54 1
    29   15   16 2
    30   16   17 1
    31   16   34 1
    32   17   22 ar
    33   17   18 ar
    34   18   19 ar
    35   18   55 1
    36   19   29 1
    37   19   20 ar
    38   20   21 ar
    39   20   26 1
    40   21   22 ar
    41   21   56 1
    42   22   23 1
    43   23   24 1
    44   24   25 1
    45   24   57 1
    46   24   58 1
    47   25   59 1
    48   25   60 1
    49   25   61 1
    50   26   27 1
    51   26   32 1
    52   26   33 1
    53   27   28 1
    54   27   62 1
    55   27   63 1
    56   28   29 1
    57   28   64 1
    58   28   65 1
    59   29   30 1
    60   29   31 1
    61   30   66 1
    62   30   67 1
    63   30   68 1
    64   31   69 1
    65   31   70 1
    66   31   71 1
    67   32   72 1
    68   32   73 1
    69   32   74 1
    70   33   75 1
    71   33   76 1
    72   33   77 1
    73   34   39 ar
    74   34   35 ar
    75   35   36 ar
    76   35   78 1
    77   36   37 ar
    78   36   79 1
    79   37   38 ar
    80   37   40 1
    81   38   39 ar
    82   38   80 1
    83   39   81 1
    84   40   41 2
    85   40   42 1
@<TRIPOS>MOLECULE
CHEMBL89581
   59    60     0     0     0
SMALL
USER_CHARGES

@<TRIPOS>ATOM
      1 C1         -4.2506   -2.6610   -1.1805 C.3       1 <0>        -0.0811
      2 C2         -5.0524   -1.9089   -2.2113 C.2       1 <0>        -0.0905
      3 C3         -6.3848   -1.7328   -2.0371 C.2       1 <0>        -0.1867
      4 C4         -6.9999   -2.1400   -0.8312 C.2       1 <0>         0.5001
      5 O1         -6.3500   -2.7423    0.0151 O.co2     1 <0>        -0.6879
      6 O2         -8.1829   -1.8907   -0.6322 O.co2     1 <0>        -0.7074
      7 C5         -4.3929   -1.3692   -3.3992 C.2       1 <0>        -0.0979
      8 C6         -3.0967   -1.6100   -3.6106 C.2       1 <0>        -0.1711
      9 C7         -2.3838   -0.9430   -4.7586 C.3       1 <0>        -0.0433
     10 C8         -1.1989   -0.1364   -4.2237 C.3       1 <0>        -0.0769
     11 C9          0.1392   -0.2792   -4.9518 C.3       1 <0>        -0.1671
     12 C10        -0.0525   -0.9125   -3.5722 C.3       1 <0>        -0.1691
     13 C11        -1.5386    1.2151   -3.6500 C.ar      1 <0>        -0.0331
     14 C12        -2.1841    2.1552   -4.4313 C.ar      1 <0>        -0.1100
     15 C13        -2.4957    3.3949   -3.9051 C.ar      1 <0>        -0.0678
     16 C14        -2.1622    3.6943   -2.5974 C.ar      1 <0>        -0.1264
     17 C15        -1.5176    2.7539   -1.8158 C.ar      1 <0>        -0.0648
     18 C16        -1.2098    1.5127   -2.3407 C.ar      1 <0>        -0.1091
     19 C17        -1.1537    3.0805   -0.3903 C.3       1 <0>        -0.0283
     20 C18        -1.7140    4.4560   -0.0232 C.3       1 <0>        -0.1430
     21 C19        -1.7466    2.0227    0.5426 C.3       1 <0>        -0.1408
     22 C20         0.3692    3.0943   -0.2431 C.3       1 <0>        -0.1358
     23 C21        -3.1985    4.4201   -4.7571 C.3       1 <0>        -0.0274
     24 C22        -4.5478    3.8635   -5.2159 C.3       1 <0>        -0.1397
     25 C23        -3.4234    5.6943   -3.9405 C.3       1 <0>        -0.1433
     26 C24        -2.3378    4.7434   -5.9800 C.3       1 <0>        -0.1363
     27 H1         -4.6815   -3.6519   -1.0372 H         1 <0>         0.0716
     28 H2         -3.2202   -2.7588   -1.5222 H         1 <0>         0.0285
     29 H3         -4.2703   -2.1163   -0.2366 H         1 <0>         0.0713
     30 H4         -6.9767   -1.2814   -2.8196 H         1 <0>         0.0935
     31 H5         -4.9541   -0.7758   -4.1058 H         1 <0>         0.1038
     32 H6         -2.5591   -2.2827   -2.9588 H         1 <0>         0.1156
     33 H7         -2.0229   -1.7022   -5.4525 H         1 <0>         0.0699
     34 H8         -3.0733   -0.2760   -5.2762 H         1 <0>         0.0686
     35 H9          0.1753   -0.9478   -5.8119 H         1 <0>         0.0950
     36 H10         0.7740    0.6045   -5.0161 H         1 <0>         0.0917
     37 H11         0.4562   -0.4454   -2.7290 H         1 <0>         0.0944
     38 H12        -0.1425   -1.9978   -3.5248 H         1 <0>         0.0975
     39 H13        -2.4446    1.9213   -5.4530 H         1 <0>         0.1159
     40 H14        -2.4051    4.6631   -2.1865 H         1 <0>         0.1278
     41 H15        -0.7095    0.7766   -1.7289 H         1 <0>         0.1188
     42 H16        -2.7989    4.4462   -0.1281 H         1 <0>         0.0591
     43 H17        -1.4508    4.6922    1.0078 H         1 <0>         0.0565
     44 H18        -1.2916    5.2096   -0.6879 H         1 <0>         0.0557
     45 H19        -1.2801    1.0583    0.3416 H         1 <0>         0.0577
     46 H20        -1.5616    2.3070    1.5785 H         1 <0>         0.0565
     47 H21        -2.8208    1.9491    0.3724 H         1 <0>         0.0606
     48 H22         0.7850    3.9027   -0.8445 H         1 <0>         0.0533
     49 H23         0.6316    3.2480    0.8036 H         1 <0>         0.0566
     50 H24         0.7758    2.1420   -0.5836 H         1 <0>         0.0556
     51 H25        -5.1610    3.6332   -4.3447 H         1 <0>         0.0589
     52 H26        -5.0561    4.6051   -5.8322 H         1 <0>         0.0559
     53 H27        -4.3875    2.9558   -5.7977 H         1 <0>         0.0568
     54 H28        -2.4622    6.0908   -3.6137 H         1 <0>         0.0564
     55 H29        -3.9318    6.4358   -4.5568 H         1 <0>         0.0559
     56 H30        -4.0366    5.4639   -3.0693 H         1 <0>         0.0592
     57 H31        -2.1775    3.8357   -6.5618 H         1 <0>         0.0563
     58 H32        -2.8461    5.4850   -6.5963 H         1 <0>         0.0557
     59 H33        -1.3765    5.1400   -5.6532 H         1 <0>         0.0540
@<TRIPOS>BOND
     1    1    2 1
     2    1   27 1
     3    1   28 1
     4    1   29 1
     5    2    3 2
     6    2    7 1
     7    3    4 1
     8    3   30 1
     9    4    5 2
    10    4    6 1
    11    7    8 2
    12    7   31 1
    13    8    9 1
    14    8   32 1
    15    9   10 1
    16    9   33 1
    17    9   34 1
    18   10   12 1
    19   10   11 1
    20   10   13 1
    21   11   12 1
    22   11   35 1
    23   11   36 1
    24   12   37 1
    25   12   38 1
    26   13   18 ar
    27   13   14 ar
    28   14   15 ar
    29   14   39 1
    30   15   16 ar
    31   15   23 1
    32   16   17 ar
    33   16   40 1
    34   17   18 ar
    35   17   19 1
    36   18   41 1
    37   19   20 1
    38   19   21 1
    39   19   22 1
    40   20   42 1
    41   20   43 1
    42   20   44 1
    43   21   45 1
    44   21   46 1
    45   21   47 1
    46   22   48 1
    47   22   49 1
    48   22   50 1
    49   23   24 1
    50   23   25 1
    51   23   26 1
    52   24   51 1
    53   24   52 1
    54   24   53 1
    55   25   54 1
    56   25   55 1
    57   25   56 1
    58   26   57 1
    59   26   58 1
    60   26   59 1
@<TRIPOS>MOLECULE
CHEMBL305115
   60    64     0     0     0
SMALL
USER_CHARGES

@<TRIPOS>ATOM
      1 C1          1.1251    0.8165   -0.8796 C.3       1 <0>        -0.1423
      2 C2          1.0659   -0.6959   -0.6560 C.3       1 <0>        -0.0240
      3 C3          1.9661   -1.3913   -1.6752 C.3       1 <0>        -0.1123
      4 C4          2.0650   -2.8748   -1.3005 C.3       1 <0>        -0.1126
      5 C5          2.8837   -2.9934   -0.0165 C.3       1 <0>        -0.0235
      6 C6          2.3463   -2.0658    1.0417 C.ar      1 <0>        -0.0585
      7 C7          1.5146   -1.0085    0.7475 C.ar      1 <0>        -0.0612
      8 C8          1.0593   -0.1866    1.7701 C.ar      1 <0>        -0.1164
      9 C9          1.4306   -0.4231    3.0778 C.ar      1 <0>        -0.1077
     10 C10         2.2622   -1.4868    3.3735 C.ar      1 <0>        -0.0750
     11 C11         2.7173   -2.3034    2.3587 C.ar      1 <0>        -0.1128
     12 C12         2.6709   -1.7534    4.7993 C.3       1 <0>         0.0250
     13 C13         1.4227   -1.9893    5.6590 C.3       1 <0>        -0.1156
     14 C14         1.8173   -1.9962    7.1384 C.3       1 <0>        -0.1166
     15 C15         2.2043   -0.5777    7.5727 C.3       1 <0>        -0.0456
     16 C16         3.2027   -0.0302    6.5803 C.2       1 <0>         0.0416
     17 C17         3.4073   -0.5584    5.3482 C.2       1 <0>        -0.1847
     18 C18         4.3987    0.2017    4.7242 C.2       1 <0>        -0.1061
     19 C19         4.7613    1.1848    5.6263 C.2       1 <0>        -0.0518
     20 O1          4.0162    1.0187    6.7411 O.3       1 <0>        -0.1122
     21 C20         5.7376    2.1864    5.4187 C.2       1 <0>         0.1102
     22 C21         6.0893    3.0176    6.4404 C.2       1 <0>        -0.2313
     23 C22         5.7578    2.9364    7.8727 C.2       1 <0>         0.5474
     24 O2          5.0737    2.0336    8.3197 O.2       1 <0>        -0.4468
     25 N1          6.2397    3.8915    8.6499 N.am      1 <0>        -0.6850
     26 C23         6.9970    4.8899    8.1510 C.2       1 <0>         0.5537
     27 O3          7.5015    5.8249    8.7436 O.2       1 <0>        -0.4172
     28 S1          7.0859    4.5013    6.4104 S.3       1 <0>        -0.0431
     29 C24         4.3407   -2.6318   -0.3119 C.3       1 <0>        -0.1395
     30 C25         2.8158   -4.4342    0.4938 C.3       1 <0>        -0.1426
     31 C26        -0.3741   -1.1777   -0.8443 C.3       1 <0>        -0.1397
     32 H1          2.1479    1.1651   -0.7370 H         1 <0>         0.0561
     33 H2          0.8009    1.0467   -1.8945 H         1 <0>         0.0584
     34 H3          0.4685    1.3152   -0.1666 H         1 <0>         0.0581
     35 H4          1.5366   -1.2924   -2.6721 H         1 <0>         0.0673
     36 H5          2.9585   -0.9409   -1.6561 H         1 <0>         0.0688
     37 H6          1.0662   -3.2797   -1.1378 H         1 <0>         0.0689
     38 H7          2.5582   -3.4240   -2.1025 H         1 <0>         0.0674
     39 H8          0.4095    0.6448    1.5399 H         1 <0>         0.1199
     40 H9          1.0723    0.2204    3.8677 H         1 <0>         0.1161
     41 H10         3.3673   -3.1341    2.5905 H         1 <0>         0.1206
     42 H11         3.3155   -2.6316    4.8383 H         1 <0>         0.0881
     43 H12         0.7014   -1.1922    5.4789 H         1 <0>         0.0710
     44 H13         0.9771   -2.9490    5.3972 H         1 <0>         0.0749
     45 H14         0.9748   -2.3422    7.7372 H         1 <0>         0.0823
     46 H15         2.6655   -2.6649    7.2848 H         1 <0>         0.0720
     47 H16         1.3176    0.0559    7.5887 H         1 <0>         0.0921
     48 H17         2.6526   -0.6075    8.5658 H         1 <0>         0.0916
     49 H18         4.8023    0.0513    3.7338 H         1 <0>         0.1572
     50 H19         6.2048    2.2928    4.4508 H         1 <0>         0.1771
     51 H20         6.0439    3.8740    9.5998 H         1 <0>         0.4211
     52 H21         4.3927   -1.6090   -0.6851 H         1 <0>         0.0582
     53 H22         4.9283   -2.7153    0.6023 H         1 <0>         0.0554
     54 H23         4.7390   -3.3134   -1.0634 H         1 <0>         0.0585
     55 H24         3.2218   -5.1068   -0.2618 H         1 <0>         0.0584
     56 H25         3.3991   -4.5229    1.4103 H         1 <0>         0.0584
     57 H26         1.7782   -4.6994    0.6964 H         1 <0>         0.0563
     58 H27        -0.7058   -0.9447   -1.8561 H         1 <0>         0.0585
     59 H28        -0.4204   -2.2551   -0.6858 H         1 <0>         0.0581
     60 H29        -1.0219   -0.6764   -0.1251 H         1 <0>         0.0554
@<TRIPOS>BOND
     1    1    2 1
     2    1   32 1
     3    1   33 1
     4    1   34 1
     5    2    7 1
     6    2    3 1
     7    2   31 1
     8    3    4 1
     9    3   35 1
    10    3   36 1
    11    4    5 1
    12    4   37 1
    13    4   38 1
    14    5    6 1
    15    5   29 1
    16    5   30 1
    17    6   11 ar
    18    6    7 ar
    19    7    8 ar
    20    8    9 ar
    21    8   39 1
    22    9   10 ar
    23    9   40 1
    24   10   11 ar
    25   10   12 1
    26   11   41 1
    27   12   17 1
    28   12   13 1
    29   12   42 1
    30   13   14 1
    31   13   43 1
    32   13   44 1
    33   14   15 1
    34   14   45 1
    35   14   46 1
    36   15   16 1
    37   15   47 1
    38   15   48 1
    39   16   20 1
    40   16   17 2
    41   17   18 1
    42   18   19 2
    43   18   49 1
    44   19   20 1
    45   19   21 1
    46   21   22 2
    47   21   50 1
    48   22   28 1
    49   22   23 1
    50   23   24 2
    51   23   25 am
    52   25   26 am
    53   25   51 1
    54   26   27 2
    55   26   28 1
    56   29   52 1
    57   29   53 1
    58   29   54 1
    59   30   55 1
    60   30   56 1
    61   30   57 1
    62   31   58 1
    63   31   59 1
    64   31   60 1
@<TRIPOS>MOLECULE
CHEMBL305115__1
   60    64     0     0     0
SMALL
USER_CHARGES

@<TRIPOS>ATOM
      1 C1          1.3826    1.2753   -0.7593 C.3       1 <0>        -0.1393
      2 C2          1.2627   -0.2458   -0.6463 C.3       1 <0>        -0.0239
      3 C3         -0.1755   -0.6615   -0.9488 C.3       1 <0>        -0.1125
      4 C4         -1.0704   -0.1767    0.1979 C.3       1 <0>        -0.1122
      5 C5         -0.7521   -1.0058    1.4406 C.3       1 <0>        -0.0235
      6 C6          0.7311   -1.0185    1.7029 C.ar      1 <0>        -0.0586
      7 C7          1.6565   -0.6732    0.7434 C.ar      1 <0>        -0.0611
      8 C8          3.0107   -0.7124    1.0485 C.ar      1 <0>        -0.1165
      9 C9          3.4357   -1.0908    2.3055 C.ar      1 <0>        -0.1076
     10 C10         2.5066   -1.4337    3.2698 C.ar      1 <0>        -0.0752
     11 C11         1.1608   -1.3973    2.9680 C.ar      1 <0>        -0.1128
     12 C12         2.9621   -1.8462    4.6458 C.3       1 <0>         0.0252
     13 C13         3.8789   -3.0714    4.5407 C.3       1 <0>        -0.1157
     14 C14         4.5463   -3.3255    5.8950 C.3       1 <0>        -0.1168
     15 C15         5.5709   -2.2205    6.1773 C.3       1 <0>        -0.0450
     16 C16         4.9026   -0.8833    5.9616 C.2       1 <0>         0.0415
     17 C17         3.7409   -0.7229    5.2807 C.2       1 <0>        -0.1847
     18 C18         3.4321    0.6390    5.2910 C.2       1 <0>        -0.1060
     19 C19         4.4461    1.2629    5.9939 C.2       1 <0>        -0.0518
     20 O1          5.3229    0.3128    6.3865 O.3       1 <0>        -0.1122
     21 C20         4.5472    2.6488    6.2559 C.2       1 <0>         0.1102
     22 C21         5.6662    3.1499    6.8520 C.2       1 <0>        -0.2313
     23 C22         6.9597    2.4986    7.1176 C.2       1 <0>         0.5473
     24 O2          7.1697    1.3421    6.7994 O.2       1 <0>        -0.4467
     25 N1          7.8824    3.2311    7.7182 N.am      1 <0>        -0.6851
     26 C23         7.6460    4.5118    8.0691 C.2       1 <0>         0.5537
     27 O3          8.3953    5.2951    8.6213 O.2       1 <0>        -0.4172
     28 S1          5.9687    4.7807    7.5188 S.3       1 <0>        -0.0430
     29 C24        -1.4729   -0.4026    2.6479 C.3       1 <0>        -0.1422
     30 C25        -1.2393   -2.4406    1.2282 C.3       1 <0>        -0.1398
     31 C26         2.2008   -0.9025   -1.6609 C.3       1 <0>        -0.1427
     32 H1          2.4123    1.5741   -0.5633 H         1 <0>         0.0553
     33 H2          1.0983    1.5885   -1.7639 H         1 <0>         0.0585
     34 H3          0.7225    1.7469   -0.0313 H         1 <0>         0.0580
     35 H4         -0.4999   -0.2069   -1.8849 H         1 <0>         0.0673
     36 H5         -0.2351   -1.7470   -1.0272 H         1 <0>         0.0689
     37 H6         -0.8722    0.8762    0.3984 H         1 <0>         0.0688
     38 H7         -2.1180   -0.3085   -0.0729 H         1 <0>         0.0674
     39 H8          3.7373   -0.4448    0.2956 H         1 <0>         0.1198
     40 H9          4.4906   -1.1195    2.5350 H         1 <0>         0.1160
     41 H10         0.4354   -1.6656    3.7219 H         1 <0>         0.1208
     42 H11         2.0960   -2.0869    5.2623 H         1 <0>         0.0884
     43 H12         3.2894   -3.9432    4.2568 H         1 <0>         0.0749
     44 H13         4.6445   -2.8889    3.7867 H         1 <0>         0.0710
     45 H14         3.7887   -3.3270    6.6786 H         1 <0>         0.0719
     46 H15         5.0504   -4.2918    5.8758 H         1 <0>         0.0823
     47 H16         5.9171   -2.2957    7.2082 H         1 <0>         0.0897
     48 H17         6.4168   -2.3220    5.4974 H         1 <0>         0.0935
     49 H18         2.5721    1.1111    4.8394 H         1 <0>         0.1572
     50 H19         3.7380    3.3102    5.9839 H         1 <0>         0.1772
     51 H20         8.7483    2.8386    7.9109 H         1 <0>         0.4211
     52 H21        -2.5482   -0.4095    2.4697 H         1 <0>         0.0584
     53 H22        -1.2481   -0.9918    3.5369 H         1 <0>         0.0584
     54 H23        -1.1359    0.6232    2.7970 H         1 <0>         0.0560
     55 H24        -0.7353   -2.8711    0.3629 H         1 <0>         0.0581
     56 H25        -1.0138   -3.0356    2.1132 H         1 <0>         0.0556
     57 H26        -2.3158   -2.4372    1.0572 H         1 <0>         0.0585
     58 H27         3.2277   -0.6007   -1.4547 H         1 <0>         0.0582
     59 H28         2.1183   -1.9866   -1.5835 H         1 <0>         0.0562
     60 H29         1.9249   -0.5881   -2.6675 H         1 <0>         0.0584
@<TRIPOS>BOND
     1    1    2 1
     2    1   32 1
     3    1   33 1
     4    1   34 1
     5    2    7 1
     6    2    3 1
     7    2   31 1
     8    3    4 1
     9    3   35 1
    10    3   36 1
    11    4    5 1
    12    4   37 1
    13    4   38 1
    14    5    6 1
    15    5   29 1
    16    5   30 1
    17    6   11 ar
    18    6    7 ar
    19    7    8 ar
    20    8    9 ar
    21    8   39 1
    22    9   10 ar
    23    9   40 1
    24   10   11 ar
    25   10   12 1
    26   11   41 1
    27   12   17 1
    28   12   13 1
    29   12   42 1
    30   13   14 1
    31   13   43 1
    32   13   44 1
    33   14   15 1
    34   14   45 1
    35   14   46 1
    36   15   16 1
    37   15   47 1
    38   15   48 1
    39   16   20 1
    40   16   17 2
    41   17   18 1
    42   18   19 2
    43   18   49 1
    44   19   20 1
    45   19   21 1
    46   21   22 2
    47   21   50 1
    48   22   28 1
    49   22   23 1
    50   23   24 2
    51   23   25 am
    52   25   26 am
    53   25   51 1
    54   26   27 2
    55   26   28 1
    56   29   52 1
    57   29   53 1
    58   29   54 1
    59   30   55 1
    60   30   56 1
    61   30   57 1
    62   31   58 1
    63   31   59 1
    64   31   60 1
@<TRIPOS>MOLECULE
CHEMBL1023
   53    55     0     0     0
SMALL
USER_CHARGES

@<TRIPOS>ATOM
      1 C1         -0.0184    1.5028    0.0103 C.3       1 <0>        -0.1142
      2 C2          0.0021   -0.0041    0.0020 C.ar      1 <0>        -0.0728
      3 C3          0.0059   -0.6899   -1.1923 C.ar      1 <0>        -0.1203
      4 C4          0.0272   -2.0796   -1.2131 C.ar      1 <0>        -0.0621
      5 C5          0.0478   -2.7839   -0.0284 C.ar      1 <0>        -0.0668
      6 C6          0.0400   -2.1020    1.1788 C.ar      1 <0>        -0.0985
      7 C7          0.0231   -0.7112    1.2029 C.ar      1 <0>        -0.0418
      8 C8          0.0217    0.0137    2.4968 C.2       1 <0>        -0.0323
      9 C9          1.1360    0.6210    2.9254 C.2       1 <0>        -0.1735
     10 C10        -1.2120    0.0660    3.3151 C.ar      1 <0>        -0.0657
     11 C11        -1.7321   -1.1055    3.8683 C.ar      1 <0>        -0.1208
     12 C12        -2.8741   -1.0587    4.6256 C.ar      1 <0>        -0.0854
     13 C13        -3.5179    0.1638    4.8442 C.ar      1 <0>        -0.1283
     14 C14        -2.9954    1.3369    4.2896 C.ar      1 <0>        -0.0860
     15 C15        -1.8502    1.2876    3.5371 C.ar      1 <0>        -0.1227
     16 C16        -4.7457    0.2157    5.6574 C.2       1 <0>         0.5179
     17 O1         -5.2024   -0.8105    6.1417 O.co2     1 <0>        -0.6875
     18 O2         -5.3082    1.2850    5.8482 O.co2     1 <0>        -0.6876
     19 C17         0.0879   -4.2891    0.0190 C.3       1 <0>        -0.0214
     20 C18        -0.3365   -4.8809   -1.3234 C.3       1 <0>        -0.1116
     21 C19         0.4845   -4.2083   -2.4299 C.3       1 <0>        -0.1102
     22 C20         0.0227   -2.7583   -2.5584 C.3       1 <0>        -0.0222
     23 C21        -1.3949   -2.7293   -3.1333 C.3       1 <0>        -0.1396
     24 C22         0.9650   -2.0106   -3.5039 C.3       1 <0>        -0.1406
     25 C23         1.5115   -4.7458    0.3441 C.3       1 <0>        -0.1382
     26 C24        -0.8617   -4.7848    1.1115 C.3       1 <0>        -0.1446
     27 H1          1.0042    1.8801    0.0026 H         1 <0>         0.0670
     28 H2         -0.5455    1.8639   -0.8728 H         1 <0>         0.0624
     29 H3         -0.5286    1.8543    0.9071 H         1 <0>         0.0713
     30 H4         -0.0082   -0.1420   -2.1229 H         1 <0>         0.1199
     31 H5          0.0510   -2.6543    2.1068 H         1 <0>         0.1223
     32 H6          1.1350    1.1488    3.8676 H         1 <0>         0.1054
     33 H7          2.0354    0.5828    2.3288 H         1 <0>         0.0997
     34 H8         -1.2348   -2.0492    3.6994 H         1 <0>         0.1108
     35 H9         -3.2766   -1.9653    5.0528 H         1 <0>         0.1261
     36 H10        -3.4913    2.2814    4.4575 H         1 <0>         0.1267
     37 H11        -1.4443    2.1937    3.1122 H         1 <0>         0.1131
     38 H12        -0.1479   -5.9544   -1.3274 H         1 <0>         0.0657
     39 H13        -1.3975   -4.6935   -1.4882 H         1 <0>         0.0692
     40 H14         1.5426   -4.2350   -2.1697 H         1 <0>         0.0677
     41 H15         0.3248   -4.7295   -3.3738 H         1 <0>         0.0648
     42 H16        -1.7207   -1.6951   -3.2449 H         1 <0>         0.0557
     43 H17        -1.4023   -3.2196   -4.1068 H         1 <0>         0.0561
     44 H18        -2.0717   -3.2526   -2.4579 H         1 <0>         0.0592
     45 H19         1.9746   -2.0203   -3.0932 H         1 <0>         0.0553
     46 H20         0.9644   -2.4988   -4.4784 H         1 <0>         0.0559
     47 H21         0.6272   -0.9801   -3.6135 H         1 <0>         0.0581
     48 H22         1.8108   -4.3417    1.3112 H         1 <0>         0.0559
     49 H23         1.5446   -5.8348    0.3794 H         1 <0>         0.0567
     50 H24         2.1933   -4.3864   -0.4266 H         1 <0>         0.0564
     51 H25        -1.8760   -4.4531    0.8892 H         1 <0>         0.0587
     52 H26        -0.8356   -5.8738    1.1490 H         1 <0>         0.0570
     53 H27        -0.5501   -4.3805    2.0746 H         1 <0>         0.0598
@<TRIPOS>BOND
     1    1    2 1
     2    1   27 1
     3    1   28 1
     4    1   29 1
     5    2    7 ar
     6    2    3 ar
     7    3    4 ar
     8    3   30 1
     9    4   22 1
    10    4    5 ar
    11    5    6 ar
    12    5   19 1
    13    6    7 ar
    14    6   31 1
    15    7    8 1
    16    8    9 2
    17    8   10 1
    18    9   32 1
    19    9   33 1
    20   10   15 ar
    21   10   11 ar
    22   11   12 ar
    23   11   34 1
    24   12   13 ar
    25   12   35 1
    26   13   14 ar
    27   13   16 1
    28   14   15 ar
    29   14   36 1
    30   15   37 1
    31   16   17 2
    32   16   18 1
    33   19   20 1
    34   19   25 1
    35   19   26 1
    36   20   21 1
    37   20   38 1
    38   20   39 1
    39   21   22 1
    40   21   40 1
    41   21   41 1
    42   22   23 1
    43   22   24 1
    44   23   42 1
    45   23   43 1
    46   23   44 1
    47   24   45 1
    48   24   46 1
    49   24   47 1
    50   25   48 1
    51   25   49 1
    52   25   50 1
    53   26   51 1
    54   26   52 1
    55   26   53 1
@<TRIPOS>MOLECULE
CHEMBL46398
   52    52     0     0     0
SMALL
USER_CHARGES

@<TRIPOS>ATOM
      1 C1         -0.3496    0.1776   -0.1270 C.3       1 <0>        -0.1462
      2 C2          0.1999   -1.2221   -0.4093 C.3       1 <0>        -0.0927
      3 C3          1.1752   -1.1569   -1.5563 C.2       1 <0>        -0.1137
      4 C4          2.4711   -0.9912   -1.3008 C.2       1 <0>        -0.0788
      5 C5          3.4311   -0.9266   -2.3374 C.2       1 <0>        -0.0763
      6 C6          4.7432   -0.7466   -2.0324 C.2       1 <0>        -0.1278
      7 C7          5.6879   -0.5838   -3.0606 C.2       1 <0>        -0.1134
      8 C8          5.4479    0.2978   -4.0747 C.2       1 <0>        -0.0981
      9 C9          6.3899    0.4602   -5.1000 C.2       1 <0>        -0.1547
     10 C10         6.1478    1.3493   -6.1227 C.2       1 <0>        -0.0775
     11 C11         7.0890    1.5116   -7.1472 C.2       1 <0>        -0.0822
     12 C12         6.8469    2.4006   -8.1698 C.2       1 <0>        -0.1341
     13 C13         7.7001    2.4379   -9.2845 C.2       1 <0>         0.4391
     14 O1          8.6660    1.5274   -9.4158 O.co2     1 <0>        -0.6908
     15 O2          7.5446    3.3837  -10.2121 O.co2     1 <0>        -0.7151
     16 C14         8.3668    0.7128   -7.1298 C.3       1 <0>        -0.0992
     17 C15         6.9657   -1.3825   -3.0433 C.3       1 <0>        -0.1136
     18 C16         3.0080   -1.0567   -3.7784 C.3       1 <0>        -0.0841
     19 C17         1.7412   -1.9158   -3.8492 C.3       1 <0>        -0.1176
     20 C18         0.6643   -1.2867   -2.9658 C.3       1 <0>        -0.0814
     21 C19         2.9270   -0.8688    0.1303 C.3       1 <0>        -0.0658
     22 C20         3.8769   -2.0210    0.4633 C.3       1 <0>        -0.1568
     23 C21         3.6546    0.4635    0.3215 C.3       1 <0>        -0.1621
     24 H1          0.4721    0.8451    0.1323 H         1 <0>         0.0558
     25 H2         -0.8575    0.5545   -1.0148 H         1 <0>         0.0546
     26 H3         -1.0551    0.1305    0.7026 H         1 <0>         0.0538
     27 H4          0.7077   -1.5989    0.4785 H         1 <0>         0.0745
     28 H5         -0.6219   -1.8896   -0.6687 H         1 <0>         0.0659
     29 H6          5.0601   -0.7287   -1.0001 H         1 <0>         0.1380
     30 H7          4.5321    0.8702   -4.0871 H         1 <0>         0.1110
     31 H8          7.3057   -0.1123   -5.0876 H         1 <0>         0.1238
     32 H9          5.2321    1.9218   -6.1352 H         1 <0>         0.1110
     33 H10         6.0008    3.0695   -8.1148 H         1 <0>         0.1091
     34 H11         8.2444   -0.1817   -7.7405 H         1 <0>         0.0663
     35 H12         9.1793    1.3184   -7.5312 H         1 <0>         0.0922
     36 H13         8.6009    0.4240   -6.1052 H         1 <0>         0.0338
     37 H14         6.8449   -2.2747   -3.6577 H         1 <0>         0.0666
     38 H15         7.7792   -0.7753   -3.4404 H         1 <0>         0.0672
     39 H16         7.1974   -1.6753   -2.0192 H         1 <0>         0.0573
     40 H17         2.8020   -0.0682   -4.1889 H         1 <0>         0.0722
     41 H18         3.8042   -1.5326   -4.3509 H         1 <0>         0.0800
     42 H19         1.3885   -1.9622   -4.8795 H         1 <0>         0.0670
     43 H20         1.9614   -2.9214   -3.4910 H         1 <0>         0.0625
     44 H21        -0.2257   -1.9159   -2.9728 H         1 <0>         0.0682
     45 H22         0.4133   -0.2992   -3.3533 H         1 <0>         0.0726
     46 H23         2.0618   -0.9084    0.7920 H         1 <0>         0.0827
     47 H24         4.7811   -1.9322   -0.1391 H         1 <0>         0.0690
     48 H25         4.1394   -1.9816    1.5205 H         1 <0>         0.0530
     49 H26         3.3871   -2.9701    0.2456 H         1 <0>         0.0539
     50 H27         2.9497    1.2845    0.1909 H         1 <0>         0.0529
     51 H28         4.0789    0.5051    1.3247 H         1 <0>         0.0532
     52 H29         4.4537    0.5501   -0.4148 H         1 <0>         0.0750
@<TRIPOS>BOND
     1    1    2 1
     2    1   24 1
     3    1   25 1
     4    1   26 1
     5    2    3 1
     6    2   27 1
     7    2   28 1
     8    3   20 1
     9    3    4 2
    10    4    5 1
    11    4   21 1
    12    5    6 2
    13    5   18 1
    14    6    7 1
    15    6   29 1
    16    7    8 2
    17    7   17 1
    18    8    9 1
    19    8   30 1
    20    9   10 2
    21    9   31 1
    22   10   11 1
    23   10   32 1
    24   11   12 2
    25   11   16 1
    26   12   13 1
    27   12   33 1
    28   13   14 2
    29   13   15 1
    30   16   34 1
    31   16   35 1
    32   16   36 1
    33   17   37 1
    34   17   38 1
    35   17   39 1
    36   18   19 1
    37   18   40 1
    38   18   41 1
    39   19   20 1
    40   19   42 1
    41   19   43 1
    42   20   44 1
    43   20   45 1
    44   21   22 1
    45   21   23 1
    46   21   46 1
    47   22   47 1
    48   22   48 1
    49   22   49 1
    50   23   50 1
    51   23   51 1
    52   23   52 1
@<TRIPOS>MOLECULE
CHEMBL62258
   53    55     0     0     0
SMALL
USER_CHARGES

@<TRIPOS>ATOM
      1 C1         -0.0184    1.5028    0.0103 C.3       1 <0>        -0.0745
      2 C2          0.0021   -0.0041    0.0020 C.2       1 <0>        -0.0191
      3 C3         -1.0886   -0.8038    0.0027 C.2       1 <0>        -0.1676
      4 C4         -0.6316   -2.1291   -0.0066 C.2       1 <0>        -0.1938
      5 C5          0.7483   -2.0687   -0.0127 C.2       1 <0>         0.0401
      6 O1          1.1035   -0.7665   -0.0131 O.3       1 <0>        -0.1643
      7 C6          1.6305   -3.1729   -0.0227 C.2       1 <0>        -0.0829
      8 C7          2.9755   -2.9689   -0.0279 C.2       1 <0>        -0.1136
      9 C8          3.8543   -4.0690   -0.0379 C.2       1 <0>         0.4428
     10 O2          3.3686   -5.3099   -0.0424 O.co2     1 <0>        -0.7019
     11 O3          5.1719   -3.8691   -0.0430 O.co2     1 <0>        -0.7053
     12 C9         -2.5269   -0.3540    0.0119 C.3       1 <0>        -0.0064
     13 C10        -2.9760   -0.0783   -1.4000 C.ar      1 <0>        -0.0710
     14 C11        -2.8215    1.1838   -1.9430 C.ar      1 <0>        -0.1205
     15 C12        -3.2377    1.4292   -3.2350 C.ar      1 <0>        -0.1175
     16 C13        -3.8099    0.4179   -3.9963 C.ar      1 <0>        -0.0689
     17 C14        -3.9592   -0.8399   -3.4574 C.ar      1 <0>        -0.0584
     18 C15        -3.5374   -1.0855   -2.1568 C.ar      1 <0>        -0.1092
     19 C16        -4.5559   -1.9873   -4.2298 C.3       1 <0>        -0.0232
     20 C17        -5.3368   -1.4734   -5.4376 C.3       1 <0>        -0.1103
     21 C18        -4.4362   -0.5132   -6.2235 C.3       1 <0>        -0.1126
     22 C19        -4.2491    0.7573   -5.3967 C.3       1 <0>        -0.0223
     23 C20        -3.1879    1.6385   -6.0587 C.3       1 <0>        -0.1422
     24 C21        -5.5735    1.5212   -5.3389 C.3       1 <0>        -0.1377
     25 C22        -3.4338   -2.9100   -4.7099 C.3       1 <0>        -0.1409
     26 C23        -5.4988   -2.7737   -3.3169 C.3       1 <0>        -0.1417
     27 H1          1.0042    1.8801    0.0026 H         1 <0>         0.0742
     28 H2         -0.5455    1.8639   -0.8728 H         1 <0>         0.0823
     29 H3         -0.5286    1.8543    0.9071 H         1 <0>         0.0814
     30 H4         -1.2392   -3.0220   -0.0083 H         1 <0>         0.1480
     31 H5          1.2368   -4.1786   -0.0264 H         1 <0>         0.1565
     32 H6          3.3691   -1.9632   -0.0243 H         1 <0>         0.1119
     33 H7         -3.1497   -1.1369    0.4448 H         1 <0>         0.0793
     34 H8         -2.6197    0.5546    0.6067 H         1 <0>         0.0772
     35 H9         -2.3767    1.9749   -1.3576 H         1 <0>         0.1194
     36 H10        -3.1181    2.4156   -3.6580 H         1 <0>         0.1188
     37 H11        -3.6545   -2.0720   -1.7331 H         1 <0>         0.1207
     38 H12        -5.6229   -2.3114   -6.0733 H         1 <0>         0.0658
     39 H13        -6.2294   -0.9464   -5.1005 H         1 <0>         0.0673
     40 H14        -3.4679   -0.9810   -6.4017 H         1 <0>         0.0695
     41 H15        -4.9057   -0.2658   -7.1755 H         1 <0>         0.0652
     42 H16        -2.2399    1.1017   -6.0933 H         1 <0>         0.0571
     43 H17        -3.5023    1.8862   -7.0726 H         1 <0>         0.0563
     44 H18        -3.0655    2.5553   -5.4820 H         1 <0>         0.0579
     45 H19        -5.4391    2.4386   -4.7658 H         1 <0>         0.0547
     46 H20        -5.8947    1.7686   -6.3506 H         1 <0>         0.0560
     47 H21        -6.3303    0.9006   -4.8590 H         1 <0>         0.0574
     48 H22        -2.8864   -3.2944   -3.8493 H         1 <0>         0.0590
     49 H23        -3.8618   -3.7418   -5.2694 H         1 <0>         0.0574
     50 H24        -2.7540   -2.3511   -5.3529 H         1 <0>         0.0578
     51 H25        -6.2945   -2.1175   -2.9645 H         1 <0>         0.0548
     52 H26        -5.9327   -3.6051   -3.8724 H         1 <0>         0.0570
     53 H27        -4.9407   -3.1589   -2.4634 H         1 <0>         0.0600
@<TRIPOS>BOND
     1    1    2 1
     2    1   27 1
     3    1   28 1
     4    1   29 1
     5    2    6 1
     6    2    3 2
     7    3    4 1
     8    3   12 1
     9    4    5 2
    10    4   30 1
    11    5    6 1
    12    5    7 1
    13    7    8 2
    14    7   31 1
    15    8    9 1
    16    8   32 1
    17    9   10 2
    18    9   11 1
    19   12   13 1
    20   12   33 1
    21   12   34 1
    22   13   18 ar
    23   13   14 ar
    24   14   15 ar
    25   14   35 1
    26   15   16 ar
    27   15   36 1
    28   16   22 1
    29   16   17 ar
    30   17   18 ar
    31   17   19 1
    32   18   37 1
    33   19   20 1
    34   19   25 1
    35   19   26 1
    36   20   21 1
    37   20   38 1
    38   20   39 1
    39   21   22 1
    40   21   40 1
    41   21   41 1
    42   22   23 1
    43   22   24 1
    44   23   42 1
    45   23   43 1
    46   23   44 1
    47   24   45 1
    48   24   46 1
    49   24   47 1
    50   25   48 1
    51   25   49 1
    52   25   50 1
    53   26   51 1
    54   26   52 1
    55   26   53 1
@<TRIPOS>MOLECULE
CHEMBL427694
   79    83     0     0     0
SMALL
USER_CHARGES

@<TRIPOS>ATOM
      1 C1          0.4133    1.7800   -1.1359 C.3       1 <0>        -0.1530
      2 C2          0.3572    0.2739   -0.8723 C.3       1 <0>        -0.1246
      3 C3          1.1428   -0.0508    0.3999 C.3       1 <0>        -0.1275
      4 C4          1.0867   -1.5569    0.6635 C.3       1 <0>         0.1137
      5 N1          1.8389   -1.8678    1.8816 N.pl3     1 <0>        -1.1178
      6 S1          1.6509   -3.3391    2.6180 S.o2      1 <0>         2.6976
      7 O1          2.5213   -3.3452    3.7412 O.2       1 <0>        -0.9542
      8 O2          0.2519   -3.5577    2.7372 O.2       1 <0>        -0.9571
      9 C5          2.2584   -4.5610    1.5033 C.ar      1 <0>        -0.6772
     10 C6          1.4038   -5.1365    0.5806 C.ar      1 <0>        -0.0226
     11 C7          1.8798   -6.0796   -0.3139 C.ar      1 <0>        -0.1429
     12 C8          3.2123   -6.4554   -0.2863 C.ar      1 <0>         0.1939
     13 C9          4.0745   -5.9095    0.6732 C.ar      1 <0>         0.0867
     14 C10         3.5856   -4.9349    1.5515 C.ar      1 <0>         0.0064
     15 N2          5.3589   -6.3269    0.8018 N.2       1 <0>        -0.5071
     16 C11         6.1984   -6.6002   -0.1316 C.2       1 <0>         0.3246
     17 C12         5.9375   -6.5392   -1.5787 C.ar      1 <0>        -0.1314
     18 C13         6.9117   -6.0544   -2.4476 C.ar      1 <0>        -0.0568
     19 C14         6.6849   -6.0204   -3.8161 C.ar      1 <0>        -0.0753
     20 C15         5.4878   -6.4748   -4.3272 C.ar      1 <0>        -0.0283
     21 C16         4.5017   -6.9456   -3.4670 C.ar      1 <0>        -0.1376
     22 C17         4.7112   -6.9676   -2.1014 C.ar      1 <0>         0.1930
     23 N3          3.6890   -7.3709   -1.2353 N.pl3     1 <0>        -0.6192
     24 C18         3.1289   -8.7221   -1.3177 C.3       1 <0>         0.1099
     25 C19         5.1931   -6.4936   -5.8046 C.3       1 <0>        -0.0238
     26 C20         6.1452   -5.5656   -6.5558 C.3       1 <0>        -0.1111
     27 C21         7.5809   -5.9079   -6.1414 C.3       1 <0>        -0.1117
     28 C22         7.7828   -5.4735   -4.6915 C.3       1 <0>        -0.0207
     29 C23         7.7735   -3.9453   -4.6168 C.3       1 <0>        -0.1399
     30 C24         9.1323   -5.9938   -4.1923 C.3       1 <0>        -0.1475
     31 C25         3.7525   -6.0336   -6.0372 C.3       1 <0>        -0.1408
     32 C26         5.3575   -7.9199   -6.3334 C.3       1 <0>        -0.1396
     33 C27         7.5544   -7.0145    0.2875 C.ar      1 <0>        -0.0960
     34 C28         8.0423   -6.6406    1.5423 C.ar      1 <0>        -0.0800
     35 C29         9.3043   -7.0263    1.9331 C.ar      1 <0>        -0.0971
     36 C30        10.0983   -7.7925    1.0742 C.ar      1 <0>        -0.1047
     37 C31         9.6096   -8.1663   -0.1815 C.ar      1 <0>        -0.0944
     38 C32         8.3454   -7.7846   -0.5691 C.ar      1 <0>        -0.1006
     39 C33        11.4512   -8.2058    1.4923 C.2       1 <0>         0.5168
     40 O3         11.8786   -7.8783    2.5904 O.co2     1 <0>        -0.6829
     41 O4         12.1455   -8.8759    0.7409 O.co2     1 <0>        -0.6842
     42 H1          1.4512    2.0885   -1.2610 H         1 <0>         0.0546
     43 H2         -0.1464    2.0113   -2.0422 H         1 <0>         0.0551
     44 H3         -0.0250    2.3131   -0.2922 H         1 <0>         0.0547
     45 H4         -0.6807   -0.0347   -0.7471 H         1 <0>         0.0660
     46 H5          0.7955   -0.2592   -1.7159 H         1 <0>         0.0650
     47 H6          2.1806    0.2578    0.2747 H         1 <0>         0.0712
     48 H7          0.7044    0.4823    1.2436 H         1 <0>         0.0725
     49 H8          0.0488   -1.8654    0.7887 H         1 <0>         0.0809
     50 H9          1.5250   -2.0900   -0.1802 H         1 <0>         0.0658
     51 H10         2.4470   -1.2118    2.2568 H         1 <0>         0.4196
     52 H11         0.3628   -4.8498    0.5582 H         1 <0>         0.1425
     53 H12         1.2099   -6.5238   -1.0353 H         1 <0>         0.1336
     54 H13         4.2480   -4.4780    2.2718 H         1 <0>         0.1479
     55 H14         7.8527   -5.7010   -2.0525 H         1 <0>         0.1375
     56 H15         3.5633   -7.2970   -3.8700 H         1 <0>         0.1274
     57 H16         2.3505   -8.8394   -0.5637 H         1 <0>         0.0732
     58 H17         2.7017   -8.8786   -2.3082 H         1 <0>         0.0547
     59 H18         3.9177   -9.4537   -1.1425 H         1 <0>         0.0562
     60 H19         6.0285   -5.7110   -7.6298 H         1 <0>         0.0678
     61 H20         5.9263   -4.5291   -6.2992 H         1 <0>         0.0691
     62 H21         7.7405   -6.9828   -6.2273 H         1 <0>         0.0707
     63 H22         8.2839   -5.3778   -6.7839 H         1 <0>         0.0690
     64 H23         7.9373   -3.6309   -3.5861 H         1 <0>         0.0569
     65 H24         8.5665   -3.5458   -5.2489 H         1 <0>         0.0599
     66 H25         6.8100   -3.5706   -4.9622 H         1 <0>         0.0560
     67 H26         9.1399   -7.0829   -4.2344 H         1 <0>         0.0603
     68 H27         9.9293   -5.6002   -4.8232 H         1 <0>         0.0604
     69 H28         9.2891   -5.6688   -3.1638 H         1 <0>         0.0635
     70 H29         3.6278   -5.0214   -5.6526 H         1 <0>         0.0562
     71 H30         3.5352   -6.0458   -7.1053 H         1 <0>         0.0588
     72 H31         3.0683   -6.7059   -5.5195 H         1 <0>         0.0570
     73 H32         4.6646   -8.5820   -5.8141 H         1 <0>         0.0551
     74 H33         5.1451   -7.9379   -7.4023 H         1 <0>         0.0592
     75 H34         6.3799   -8.2560   -6.1604 H         1 <0>         0.0616
     76 H35         7.4291   -6.0485    2.2055 H         1 <0>         0.1257
     77 H36         9.6814   -6.7370    2.9029 H         1 <0>         0.1313
     78 H37        10.2226   -8.7578   -0.8454 H         1 <0>         0.1305
     79 H38         7.9662   -8.0767   -1.5373 H         1 <0>         0.1178
@<TRIPOS>BOND
     1    1    2 1
     2    1   42 1
     3    1   43 1
     4    1   44 1
     5    2    3 1
     6    2   45 1
     7    2   46 1
     8    3    4 1
     9    3   47 1
    10    3   48 1
    11    4    5 1
    12    4   49 1
    13    4   50 1
    14    5    6 1
    15    5   51 1
    16    6    7 2
    17    6    8 2
    18    6    9 1
    19    9   14 ar
    20    9   10 ar
    21   10   11 ar
    22   10   52 1
    23   11   12 ar
    24   11   53 1
    25   12   23 1
    26   12   13 ar
    27   13   14 ar
    28   13   15 1
    29   14   54 1
    30   15   16 2
    31   16   17 1
    32   16   33 1
    33   17   22 ar
    34   17   18 ar
    35   18   19 ar
    36   18   55 1
    37   19   28 1
    38   19   20 ar
    39   20   21 ar
    40   20   25 1
    41   21   22 ar
    42   21   56 1
    43   22   23 1
    44   23   24 1
    45   24   57 1
    46   24   58 1
    47   24   59 1
    48   25   26 1
    49   25   31 1
    50   25   32 1
    51   26   27 1
    52   26   60 1
    53   26   61 1
    54   27   28 1
    55   27   62 1
    56   27   63 1
    57   28   29 1
    58   28   30 1
    59   29   64 1
    60   29   65 1
    61   29   66 1
    62   30   67 1
    63   30   68 1
    64   30   69 1
    65   31   70 1
    66   31   71 1
    67   31   72 1
    68   32   73 1
    69   32   74 1
    70   32   75 1
    71   33   38 ar
    72   33   34 ar
    73   34   35 ar
    74   34   76 1
    75   35   36 ar
    76   35   77 1
    77   36   37 ar
    78   36   39 1
    79   37   38 ar
    80   37   78 1
    81   38   79 1
    82   39   40 2
    83   39   41 1
@<TRIPOS>MOLECULE
CHEMBL93628
   53    55     0     0     0
SMALL
USER_CHARGES

@<TRIPOS>ATOM
      1 C1          0.4144    1.0741   -0.1427 C.3       1 <0>        -0.1170
      2 C2          0.1973   -0.3941    0.1182 C.ar      1 <0>        -0.0735
      3 C3          0.1586   -1.2852   -0.9298 C.ar      1 <0>        -0.1209
      4 C4         -0.0386   -2.6430   -0.7027 C.ar      1 <0>        -0.0622
      5 C5         -0.1950   -3.1099    0.5856 C.ar      1 <0>        -0.0675
      6 C6         -0.1622   -2.2226    1.6492 C.ar      1 <0>        -0.1005
      7 C7          0.0397   -0.8602    1.4267 C.ar      1 <0>        -0.0370
      8 C8          0.0808    0.0796    2.5599 C.2       1 <0>        -0.1083
      9 C9          1.1687    0.1329    3.3510 C.2       1 <0>        -0.0354
     10 C10         1.1486    0.9453    4.5718 C.2       1 <0>        -0.1940
     11 C11         2.1755    1.2224    5.4317 C.2       1 <0>        -0.0802
     12 C12         1.8616    2.0324    6.5226 C.2       1 <0>        -0.1902
     13 C13         0.5579    2.4797    6.6400 C.2       1 <0>        -0.2220
     14 S1         -0.2174    1.8250    5.3019 S.3       1 <0>         0.1458
     15 C14         2.8810    2.3978    7.5141 C.2       1 <0>         0.5320
     16 O1          4.0285    1.9903    7.3907 O.co2     1 <0>        -0.6914
     17 O2          2.5834    3.1100    8.4639 O.co2     1 <0>        -0.6917
     18 C15        -1.0950    0.9814    2.8340 C.3       1 <0>        -0.1208
     19 C16        -0.3956   -4.5697    0.8997 C.3       1 <0>        -0.0216
     20 C17        -0.8330   -5.3332   -0.3485 C.3       1 <0>        -0.1106
     21 C18         0.1438   -5.0050   -1.4836 C.3       1 <0>        -0.1115
     22 C19        -0.0758   -3.5531   -1.9032 C.3       1 <0>        -0.0222
     23 C20        -1.4371   -3.4269   -2.5900 C.3       1 <0>        -0.1382
     24 C21         1.0233   -3.1396   -2.8839 C.3       1 <0>        -0.1418
     25 C22         0.9180   -5.1594    1.4171 C.3       1 <0>        -0.1403
     26 C23        -1.4704   -4.7102    1.9795 C.3       1 <0>        -0.1431
     27 H1          1.4826    1.2909   -0.1321 H         1 <0>         0.0698
     28 H2          0.0003    1.3353   -1.1165 H         1 <0>         0.0613
     29 H3         -0.0825    1.6582    0.6319 H         1 <0>         0.0726
     30 H4          0.2825   -0.9257   -1.9406 H         1 <0>         0.1194
     31 H5         -0.2895   -2.5886    2.6573 H         1 <0>         0.1234
     32 H6          2.0564   -0.4227    3.0866 H         1 <0>         0.1278
     33 H7          3.1717    0.8359    5.2752 H         1 <0>         0.1393
     34 H8          0.1373    3.1085    7.4109 H         1 <0>         0.1784
     35 H9         -1.7363    0.5236    3.5871 H         1 <0>         0.0738
     36 H10        -0.7372    1.9444    3.1982 H         1 <0>         0.0791
     37 H11        -1.6620    1.1286    1.9148 H         1 <0>         0.0678
     38 H12        -0.8164   -6.4045   -0.1481 H         1 <0>         0.0654
     39 H13        -1.8404   -5.0278   -0.6313 H         1 <0>         0.0678
     40 H14         1.1685   -5.1355   -1.1354 H         1 <0>         0.0688
     41 H15        -0.0432   -5.6644   -2.3311 H         1 <0>         0.0648
     42 H16        -1.5892   -2.3956   -2.9086 H         1 <0>         0.0551
     43 H17        -1.4679   -4.0839   -3.4592 H         1 <0>         0.0559
     44 H18        -2.2242   -3.7112   -1.8916 H         1 <0>         0.0579
     45 H19         1.9946   -3.2186   -2.3956 H         1 <0>         0.0565
     46 H20         0.9997   -3.7958   -3.7540 H         1 <0>         0.0559
     47 H21         0.8588   -2.1098   -3.2010 H         1 <0>         0.0582
     48 H22         1.2234   -4.6300    2.3197 H         1 <0>         0.0579
     49 H23         0.7770   -6.2158    1.6456 H         1 <0>         0.0567
     50 H24         1.6896   -5.0524    0.6546 H         1 <0>         0.0574
     51 H25        -2.4058   -4.2823    1.6189 H         1 <0>         0.0556
     52 H26        -1.6184   -5.7653    2.2097 H         1 <0>         0.0565
     53 H27        -1.1526   -4.1832    2.8792 H         1 <0>         0.0607
@<TRIPOS>BOND
     1    1    2 1
     2    1   27 1
     3    1   28 1
     4    1   29 1
     5    2    7 ar
     6    2    3 ar
     7    3    4 ar
     8    3   30 1
     9    4   22 1
    10    4    5 ar
    11    5    6 ar
    12    5   19 1
    13    6    7 ar
    14    6   31 1
    15    7    8 1
    16    8    9 2
    17    8   18 1
    18    9   10 1
    19    9   32 1
    20   10   14 1
    21   10   11 2
    22   11   12 1
    23   11   33 1
    24   12   13 2
    25   12   15 1
    26   13   14 1
    27   13   34 1
    28   15   16 2
    29   15   17 1
    30   18   35 1
    31   18   36 1
    32   18   37 1
    33   19   20 1
    34   19   25 1
    35   19   26 1
    36   20   21 1
    37   20   38 1
    38   20   39 1
    39   21   22 1
    40   21   40 1
    41   21   41 1
    42   22   23 1
    43   22   24 1
    44   23   42 1
    45   23   43 1
    46   23   44 1
    47   24   45 1
    48   24   46 1
    49   24   47 1
    50   25   48 1
    51   25   49 1
    52   25   50 1
    53   26   51 1
    54   26   52 1
    55   26   53 1
@<TRIPOS>MOLECULE
CHEMBL41676
   65    67     0     0     0
SMALL
USER_CHARGES

@<TRIPOS>ATOM
      1 C1          1.1266    1.6448   -0.6364 C.3       1 <0>        -0.1523
      2 C2          1.5106    0.3211   -1.3007 C.3       1 <0>         0.0562
      3 O1          0.6049   -0.7021   -0.8827 O.3       1 <0>        -0.3158
      4 C3          0.7220   -1.9136   -1.4861 C.ar      1 <0>         0.1224
      5 C4          1.7686   -2.7733   -1.1370 C.ar      1 <0>        -0.0702
      6 C5          1.8799   -4.0136   -1.7609 C.ar      1 <0>        -0.0954
      7 C6          0.9589   -4.3880   -2.7187 C.ar      1 <0>        -0.0787
      8 C7         -0.0751   -3.5355   -3.0617 C.ar      1 <0>        -0.1013
      9 C8         -0.1981   -2.3044   -2.4450 C.ar      1 <0>        -0.0816
     10 C9         -1.3311   -1.3843   -2.8201 C.3       1 <0>        -0.0183
     11 C10        -2.2703   -2.1017   -3.7919 C.3       1 <0>        -0.1433
     12 C11        -2.1052   -0.9889   -1.5610 C.3       1 <0>        -0.1434
     13 C12        -0.7683   -0.1283   -3.4883 C.3       1 <0>        -0.1504
     14 C13         1.0808   -5.7301   -3.3934 C.3       1 <0>        -0.0259
     15 C14         2.2989   -6.4711   -2.8385 C.3       1 <0>        -0.1453
     16 C15        -0.1817   -6.5519   -3.1257 C.3       1 <0>        -0.1394
     17 C16         1.2488   -5.5297   -4.9009 C.3       1 <0>        -0.1370
     18 C17         2.7553   -2.3660   -0.1080 C.ar      1 <0>        -0.0282
     19 C18         4.0899   -2.1860   -0.4535 C.ar      1 <0>        -0.0981
     20 C19         5.0193   -1.8050    0.5010 C.ar      1 <0>        -0.1383
     21 C20         4.6354   -1.5990    1.8069 C.ar      1 <0>        -0.0747
     22 C21         3.2965   -1.7746    2.1769 C.ar      1 <0>        -0.1124
     23 C22         2.3456   -2.1555    1.2137 C.ar      1 <0>         0.0671
     24 O2          1.1515   -2.2446    1.8330 O.3       1 <0>        -0.1678
     25 C23         1.2885   -1.9353    3.1407 C.2       1 <0>         0.1133
     26 C24         2.5945   -1.6463    3.4022 C.2       1 <0>        -0.2167
     27 C25         0.2404   -1.9242    4.0941 C.2       1 <0>        -0.0828
     28 C26        -0.1313   -0.7573    4.6811 C.2       1 <0>        -0.1358
     29 C27        -1.0677   -0.7654    5.7365 C.2       1 <0>         0.5007
     30 O3         -1.4619   -1.8303    6.1979 O.co2     1 <0>        -0.6772
     31 O4         -1.4869    0.2925    6.1919 O.co2     1 <0>        -0.6956
     32 C28        -0.4620   -3.2072    4.4568 C.3       1 <0>        -0.0851
     33 H1          0.1120    1.9165   -0.9275 H         1 <0>         0.0647
     34 H2          1.1768    1.5356    0.4470 H         1 <0>         0.0669
     35 H3          1.8175    2.4252   -0.9553 H         1 <0>         0.0723
     36 H4          1.4604    0.4304   -2.3841 H         1 <0>         0.0557
     37 H5          2.5252    0.0494   -1.0096 H         1 <0>         0.0533
     38 H6          2.6862   -4.6816   -1.4959 H         1 <0>         0.1295
     39 H7         -0.7921   -3.8348   -3.8119 H         1 <0>         0.1290
     40 H8         -2.6712   -2.9965   -3.3158 H         1 <0>         0.0577
     41 H9         -3.0898   -1.4362   -4.0632 H         1 <0>         0.0575
     42 H10        -1.7188   -2.3834   -4.6889 H         1 <0>         0.0550
     43 H11        -1.4638   -0.3920   -0.9126 H         1 <0>         0.0788
     44 H12        -2.9819   -0.4052   -1.8418 H         1 <0>         0.0515
     45 H13        -2.4214   -1.8877   -1.0316 H         1 <0>         0.0527
     46 H14        -0.2169   -0.4100   -4.3853 H         1 <0>         0.0500
     47 H15        -1.5879    0.5372   -3.7596 H         1 <0>         0.0570
     48 H16        -0.0993    0.3828   -2.7960 H         1 <0>         0.0702
     49 H17         2.1792   -6.6139   -1.7646 H         1 <0>         0.0598
     50 H18         2.3870   -7.4418   -3.3265 H         1 <0>         0.0573
     51 H19         3.1983   -5.8856   -3.0292 H         1 <0>         0.0584
     52 H20        -1.0495   -6.0239   -3.5210 H         1 <0>         0.0565
     53 H21        -0.0936   -7.5226   -3.6137 H         1 <0>         0.0572
     54 H22        -0.3014   -6.6947   -2.0518 H         1 <0>         0.0581
     55 H23         2.1482   -4.9442   -5.0915 H         1 <0>         0.0556
     56 H24         1.3369   -6.5003   -5.3888 H         1 <0>         0.0570
     57 H25         0.3810   -5.0017   -5.2962 H         1 <0>         0.0560
     58 H26         4.4050   -2.3449   -1.4743 H         1 <0>         0.1286
     59 H27         6.0528   -1.6688    0.2184 H         1 <0>         0.1265
     60 H28         5.3660   -1.3029    2.5451 H         1 <0>         0.1254
     61 H29         3.0124   -1.3630    4.3569 H         1 <0>         0.1554
     62 H30         0.2899    0.1769    4.3400 H         1 <0>         0.1020
     63 H31        -0.0111   -3.6266    5.3561 H         1 <0>         0.0679
     64 H32        -1.5172   -3.0046    4.6400 H         1 <0>         0.0981
     65 H33        -0.3657   -3.9185    3.6365 H         1 <0>         0.0299
@<TRIPOS>BOND
     1    1    2 1
     2    1   33 1
     3    1   34 1
     4    1   35 1
     5    2    3 1
     6    2   36 1
     7    2   37 1
     8    3    4 1
     9    4    9 ar
    10    4    5 ar
    11    5    6 ar
    12    5   18 1
    13    6    7 ar
    14    6   38 1
    15    7    8 ar
    16    7   14 1
    17    8    9 ar
    18    8   39 1
    19    9   10 1
    20   10   11 1
    21   10   12 1
    22   10   13 1
    23   11   40 1
    24   11   41 1
    25   11   42 1
    26   12   43 1
    27   12   44 1
    28   12   45 1
    29   13   46 1
    30   13   47 1
    31   13   48 1
    32   14   15 1
    33   14   16 1
    34   14   17 1
    35   15   49 1
    36   15   50 1
    37   15   51 1
    38   16   52 1
    39   16   53 1
    40   16   54 1
    41   17   55 1
    42   17   56 1
    43   17   57 1
    44   18   23 ar
    45   18   19 ar
    46   19   20 ar
    47   19   58 1
    48   20   21 ar
    49   20   59 1
    50   21   22 ar
    51   21   60 1
    52   22   26 1
    53   22   23 ar
    54   23   24 1
    55   24   25 1
    56   25   26 2
    57   25   27 1
    58   26   61 1
    59   27   28 2
    60   27   32 1
    61   28   29 1
    62   28   62 1
    63   29   30 2
    64   29   31 1
    65   32   63 1
    66   32   64 1
    67   32   65 1
@<TRIPOS>MOLECULE
CHEMBL423465
   56    58     0     0     0
SMALL
USER_CHARGES

@<TRIPOS>ATOM
      1 C1         -0.3285    1.1928   -0.1023 C.3       1 <0>        -0.1181
      2 C2          0.0616   -0.2583    0.0121 C.ar      1 <0>        -0.0489
      3 C3          0.1563   -1.0409   -1.1170 C.ar      1 <0>        -0.1207
      4 C4          0.5177   -2.3801   -1.0250 C.ar      1 <0>        -0.0484
      5 C5          0.7883   -2.9355    0.2074 C.ar      1 <0>        -0.0711
      6 C6          0.6916   -2.1569    1.3504 C.ar      1 <0>        -0.0809
      7 C7          0.3343   -0.8146    1.2613 C.ar      1 <0>        -0.0378
      8 C8          0.2390    0.0153    2.4850 C.2       1 <0>         0.2343
      9 N1         -0.6699   -0.2463    3.3798 N.2       1 <0>        -0.3402
     10 O1         -0.6758    0.4562    4.6093 O.3       1 <0>        -0.2287
     11 C9         -1.7274    0.0678    5.4955 C.3       1 <0>         0.0428
     12 C10         1.1778    1.1426    2.6904 C.ar      1 <0>        -0.1106
     13 C11         0.7355    2.3154    3.3047 C.ar      1 <0>        -0.0910
     14 C12         1.6069    3.3637    3.4961 C.ar      1 <0>        -0.0927
     15 C13         2.9356    3.2532    3.0753 C.ar      1 <0>        -0.1113
     16 C14         3.3776    2.0778    2.4605 C.ar      1 <0>        -0.0929
     17 C15         2.5055    1.0291    2.2746 C.ar      1 <0>        -0.1010
     18 C16         3.8702    4.3758    3.2794 C.2       1 <0>         0.5175
     19 O2          3.4830    5.4039    3.8169 O.co2     1 <0>        -0.6850
     20 O3          5.0324    4.2786    2.9111 O.co2     1 <0>        -0.6850
     21 C17         1.2006   -4.3748    0.3748 C.3       1 <0>        -0.0207
     22 C18         0.8483   -5.1835   -0.8719 C.3       1 <0>        -0.1104
     23 C19         1.4046   -4.4498   -2.0978 C.3       1 <0>        -0.1118
     24 C20         0.5927   -3.1728   -2.3042 C.3       1 <0>        -0.0235
     25 C21        -0.8228   -3.5419   -2.7527 C.3       1 <0>        -0.1387
     26 C22         1.2582   -2.3213   -3.3871 C.3       1 <0>        -0.1431
     27 C23         2.7109   -4.4427    0.6100 C.3       1 <0>        -0.1410
     28 C24         0.4755   -4.9699    1.5835 C.3       1 <0>        -0.1429
     29 H1          0.5698    1.8096   -0.1279 H         1 <0>         0.0802
     30 H2         -0.8996    1.3444   -1.0183 H         1 <0>         0.0659
     31 H3         -0.9380    1.4740    0.7565 H         1 <0>         0.0654
     32 H4         -0.0528   -0.6095   -2.0848 H         1 <0>         0.1260
     33 H5          0.8991   -2.5937    2.3160 H         1 <0>         0.1242
     34 H6         -1.6627    0.6514    6.4138 H         1 <0>         0.0936
     35 H7         -2.6903    0.2478    5.0176 H         1 <0>         0.0453
     36 H8         -1.6311   -0.9921    5.7311 H         1 <0>         0.0450
     37 H9         -0.2910    2.4005    3.6297 H         1 <0>         0.1186
     38 H10         1.2642    4.2712    3.9708 H         1 <0>         0.1289
     39 H11         4.4036    1.9914    2.1347 H         1 <0>         0.1291
     40 H12         2.8476    0.1195    1.8035 H         1 <0>         0.1156
     41 H13         1.2947   -6.1756   -0.8041 H         1 <0>         0.0662
     42 H14        -0.2346   -5.2728   -0.9577 H         1 <0>         0.0683
     43 H15         2.4514   -4.1962   -1.9302 H         1 <0>         0.0702
     44 H16         1.3170   -5.0868   -2.9779 H         1 <0>         0.0661
     45 H17        -1.3997   -2.6323   -2.9200 H         1 <0>         0.0562
     46 H18        -0.7727   -4.1157   -3.6781 H         1 <0>         0.0572
     47 H19        -1.3044   -4.1406   -1.9796 H         1 <0>         0.0581
     48 H20         2.2637   -2.0478   -3.0674 H         1 <0>         0.0586
     49 H21         1.3143   -2.8916   -4.3144 H         1 <0>         0.0570
     50 H22         0.6708   -1.4179   -3.5512 H         1 <0>         0.0596
     51 H23         2.9639   -3.8831    1.5105 H         1 <0>         0.0574
     52 H24         3.0132   -5.4829    0.7317 H         1 <0>         0.0572
     53 H25         3.2315   -4.0106   -0.2446 H         1 <0>         0.0595
     54 H26        -0.6015   -4.9145    1.4247 H         1 <0>         0.0564
     55 H27         0.7713   -6.0116    1.7080 H         1 <0>         0.0571
     56 H28         0.7401   -4.4075    2.4790 H         1 <0>         0.0590
@<TRIPOS>BOND
     1    1    2 1
     2    1   29 1
     3    1   30 1
     4    1   31 1
     5    2    7 ar
     6    2    3 ar
     7    3    4 ar
     8    3   32 1
     9    4   24 1
    10    4    5 ar
    11    5    6 ar
    12    5   21 1
    13    6    7 ar
    14    6   33 1
    15    7    8 1
    16    8    9 2
    17    8   12 1
    18    9   10 1
    19   10   11 1
    20   11   34 1
    21   11   35 1
    22   11   36 1
    23   12   17 ar
    24   12   13 ar
    25   13   14 ar
    26   13   37 1
    27   14   15 ar
    28   14   38 1
    29   15   16 ar
    30   15   18 1
    31   16   17 ar
    32   16   39 1
    33   17   40 1
    34   18   19 2
    35   18   20 1
    36   21   22 1
    37   21   27 1
    38   21   28 1
    39   22   23 1
    40   22   41 1
    41   22   42 1
    42   23   24 1
    43   23   43 1
    44   23   44 1
    45   24   25 1
    46   24   26 1
    47   25   45 1
    48   25   46 1
    49   25   47 1
    50   26   48 1
    51   26   49 1
    52   26   50 1
    53   27   51 1
    54   27   52 1
    55   27   53 1
    56   28   54 1
    57   28   55 1
    58   28   56 1
@<TRIPOS>MOLECULE
CHEMBL328481
   52    54     0     0     0
SMALL
USER_CHARGES

@<TRIPOS>ATOM
      1 C1         -0.0184    1.5028    0.0103 C.3       1 <0>        -0.1200
      2 C2          0.0021   -0.0041    0.0020 C.ar      1 <0>        -0.0685
      3 C3          0.0058   -0.6898   -1.1910 C.ar      1 <0>        -0.1200
      4 C4          0.0266   -2.0803   -1.2128 C.ar      1 <0>        -0.0596
      5 C5          0.0468   -2.7873   -0.0287 C.ar      1 <0>        -0.0673
      6 C6          0.0392   -2.1091    1.1794 C.ar      1 <0>        -0.0990
      7 C7          0.0232   -0.7139    1.2064 C.ar      1 <0>        -0.0495
      8 C8          0.0229    0.0040    2.4917 C.2       1 <0>        -0.0325
      9 C9          1.1552    0.0864    3.2178 C.2       1 <0>        -0.0742
     10 C10         1.1550    0.8005    4.4963 C.2       1 <0>         0.0834
     11 N1          0.1502    1.4249    5.1131 N.2       1 <0>        -0.4912
     12 C11         0.3171    2.0177    6.2588 C.2       1 <0>         0.0287
     13 C12         1.5762    1.9999    6.8556 C.2       1 <0>        -0.1654
     14 S1          2.4992    1.0591    5.6464 S.3       1 <0>         0.0374
     15 C13         2.0047    2.5655    8.0816 C.2       1 <0>         0.5510
     16 O1          1.2104    3.1797    8.7838 O.co2     1 <0>        -0.6654
     17 O2          3.1698    2.4406    8.4398 O.co2     1 <0>        -0.6750
     18 C14        -1.2436    0.6469    2.9954 C.3       1 <0>        -0.1312
     19 C15         0.0863   -4.2927    0.0157 C.3       1 <0>        -0.0217
     20 C16        -0.3383   -4.8816   -1.3278 C.3       1 <0>        -0.1110
     21 C17         0.4833   -4.2075   -2.4329 C.3       1 <0>        -0.1114
     22 C18         0.0219   -2.7571   -2.5592 C.3       1 <0>        -0.0227
     23 C19        -1.3956   -2.7269   -3.1341 C.3       1 <0>        -0.1387
     24 C20         0.9645   -2.0083   -3.5035 C.3       1 <0>        -0.1419
     25 C21         1.5097   -4.7506    0.3400 C.3       1 <0>        -0.1401
     26 C22        -0.8636   -4.7901    1.1072 C.3       1 <0>        -0.1435
     27 H1          1.0042    1.8801    0.0026 H         1 <0>         0.0706
     28 H2         -0.5455    1.8639   -0.8728 H         1 <0>         0.0631
     29 H3         -0.5286    1.8543    0.9071 H         1 <0>         0.0745
     30 H4         -0.0079   -0.1418   -2.1215 H         1 <0>         0.1210
     31 H5          0.0499   -2.6636    2.1061 H         1 <0>         0.1241
     32 H6          2.0629   -0.3744    2.8568 H         1 <0>         0.1341
     33 H7         -0.5097    2.5179    6.7412 H         1 <0>         0.1712
     34 H8         -1.7975   -0.0687    3.6031 H         1 <0>         0.0693
     35 H9         -0.9931    1.5192    3.5992 H         1 <0>         0.1136
     36 H10        -1.8564    0.9552    2.1483 H         1 <0>         0.0523
     37 H11        -0.1503   -5.9553   -1.3338 H         1 <0>         0.0658
     38 H12        -1.3992   -4.6933   -1.4924 H         1 <0>         0.0682
     39 H13         1.5413   -4.2347   -2.1723 H         1 <0>         0.0689
     40 H14         0.3239   -4.7270   -3.3777 H         1 <0>         0.0653
     41 H15        -1.7211   -1.6925   -3.2442 H         1 <0>         0.0555
     42 H16        -1.4031   -3.2158   -4.1083 H         1 <0>         0.0564
     43 H17        -2.0726   -3.2510   -2.4595 H         1 <0>         0.0581
     44 H18         1.9741   -2.0189   -3.0929 H         1 <0>         0.0566
     45 H19         0.9638   -2.4951   -4.4788 H         1 <0>         0.0563
     46 H20         0.6270   -0.9775   -3.6117 H         1 <0>         0.0585
     47 H21         1.8091   -4.3485    1.3079 H         1 <0>         0.0576
     48 H22         1.5424   -5.8396    0.3731 H         1 <0>         0.0570
     49 H23         2.1917   -4.3898   -0.4300 H         1 <0>         0.0577
     50 H24        -1.8777   -4.4576    0.8855 H         1 <0>         0.0561
     51 H25        -0.8379   -5.8792    1.1425 H         1 <0>         0.0570
     52 H26        -0.5519   -4.3879    2.0711 H         1 <0>         0.0603
@<TRIPOS>BOND
     1    1    2 1
     2    1   27 1
     3    1   28 1
     4    1   29 1
     5    2    7 ar
     6    2    3 ar
     7    3    4 ar
     8    3   30 1
     9    4   22 1
    10    4    5 ar
    11    5    6 ar
    12    5   19 1
    13    6    7 ar
    14    6   31 1
    15    7    8 1
    16    8    9 2
    17    8   18 1
    18    9   10 1
    19    9   32 1
    20   10   14 1
    21   10   11 2
    22   11   12 1
    23   12   13 2
    24   12   33 1
    25   13   14 1
    26   13   15 1
    27   15   16 2
    28   15   17 1
    29   18   34 1
    30   18   35 1
    31   18   36 1
    32   19   20 1
    33   19   25 1
    34   19   26 1
    35   20   21 1
    36   20   37 1
    37   20   38 1
    38   21   22 1
    39   21   39 1
    40   21   40 1
    41   22   23 1
    42   22   24 1
    43   23   41 1
    44   23   42 1
    45   23   43 1
    46   24   44 1
    47   24   45 1
    48   24   46 1
    49   25   47 1
    50   25   48 1
    51   25   49 1
    52   26   50 1
    53   26   51 1
    54   26   52 1
@<TRIPOS>MOLECULE
CHEMBL248415
   58    61     0     0     0
SMALL
USER_CHARGES

@<TRIPOS>ATOM
      1 C1          0.8203    1.8534   -1.2770 C.3       1 <0>        -0.1714
      2 C2          0.8666    0.3285   -1.1609 C.3       1 <0>         0.0972
      3 N1          1.2394   -0.2487   -2.4547 N.am      1 <0>        -0.5500
      4 C3          0.2426   -0.5751   -3.3790 C.ar      1 <0>         0.1652
      5 C4         -1.0475   -0.0966   -3.2011 C.ar      1 <0>        -0.1308
      6 C5         -2.0365   -0.4094   -4.1294 C.ar      1 <0>        -0.0268
      7 C6         -1.7251   -1.2011   -5.2338 C.ar      1 <0>        -0.0767
      8 C7         -0.4406   -1.6779   -5.4008 C.ar      1 <0>        -0.0808
      9 C8          0.5406   -1.3735   -4.4754 C.ar      1 <0>        -0.0986
     10 C9          1.9319   -1.9278   -4.6483 C.3       1 <0>        -0.0199
     11 C10         2.9547   -0.9282   -4.1081 C.3       1 <0>        -0.1318
     12 C11         2.5363   -0.4535   -2.7422 C.2       1 <0>         0.5221
     13 O1          3.3781   -0.2578   -1.8912 O.2       1 <0>        -0.5210
     14 C12         2.1996   -2.1776   -6.1338 C.3       1 <0>        -0.1426
     15 C13         2.0539   -3.2459   -3.8811 C.3       1 <0>        -0.1411
     16 C14        -2.7909   -1.5367   -6.2450 C.3       1 <0>        -0.1158
     17 C15        -3.4182    0.0980   -3.9437 C.ar      1 <0>        -0.0426
     18 C16        -3.6723    1.4618   -4.0034 C.ar      1 <0>        -0.0398
     19 C17        -4.9770    1.9327   -3.8279 C.ar      1 <0>        -0.1107
     20 C18        -6.0202    1.0273   -3.5931 C.ar      1 <0>        -0.0304
     21 C19        -5.7624   -0.3241   -3.5345 C.ar      1 <0>        -0.1933
     22 C20        -4.4695   -0.7980   -3.7137 C.ar      1 <0>         0.1473
     23 O2         -4.2235   -2.1315   -3.6603 O.3       1 <0>        -0.2963
     24 C21        -5.3420   -2.9886   -3.4223 C.3       1 <0>         0.6015
     25 F1         -6.2837   -2.8207   -4.4432 F         1 <0>        -0.1620
     26 F2         -4.9126   -4.3198   -3.3983 F         1 <0>        -0.1257
     27 F3         -5.9246   -2.6642   -2.1925 F         1 <0>        -0.1623
     28 C22        -5.2534    3.3738   -3.8892 C.2       1 <0>         0.0786
     29 C23        -4.2822    4.2348   -4.2855 C.2       1 <0>        -0.2159
     30 C24        -4.2708    5.7112   -4.2731 C.2       1 <0>         0.5625
     31 O3         -5.2212    6.3545   -3.8680 O.2       1 <0>        -0.4677
     32 N2         -3.1755    6.2992   -4.7241 N.am      1 <0>        -0.6849
     33 C25        -2.1246    5.5825   -5.1721 C.2       1 <0>         0.5311
     34 O4         -1.0651    5.9887   -5.6103 O.2       1 <0>        -0.4147
     35 S1         -2.6618    3.8931   -4.9589 S.3       1 <0>        -0.0333
     36 H1          1.8016    2.2253   -1.5716 H         1 <0>         0.0617
     37 H2          0.0834    2.1384   -2.0279 H         1 <0>         0.0609
     38 H3          0.5429    2.2828   -0.3144 H         1 <0>         0.0730
     39 H4          1.6035    0.0435   -0.4100 H         1 <0>         0.0947
     40 H5         -0.1148   -0.0434   -0.8664 H         1 <0>         0.0844
     41 H6         -1.2839    0.5168   -2.3442 H         1 <0>         0.1329
     42 H7         -0.2012   -2.2906   -6.2573 H         1 <0>         0.1368
     43 H8          3.9312   -1.4082   -4.0432 H         1 <0>         0.1100
     44 H9          3.0164   -0.0733   -4.7814 H         1 <0>         0.1042
     45 H10         2.1113   -1.2394   -6.6817 H         1 <0>         0.0633
     46 H11         3.2055   -2.5783   -6.2594 H         1 <0>         0.0654
     47 H12         1.4728   -2.8929   -6.5187 H         1 <0>         0.0666
     48 H13         1.3272   -3.9602   -4.2683 H         1 <0>         0.0652
     49 H14         3.0597   -3.6471   -4.0057 H         1 <0>         0.0662
     50 H15         1.8616   -3.0695   -2.8228 H         1 <0>         0.0535
     51 H16        -2.8051   -0.7749   -7.0244 H         1 <0>         0.0738
     52 H17        -2.5763   -2.5082   -6.6903 H         1 <0>         0.0702
     53 H18        -3.7623   -1.5698   -5.7516 H         1 <0>         0.0631
     54 H19        -2.8651    2.1561   -4.1842 H         1 <0>         0.1494
     55 H20        -7.0284    1.3900   -3.4575 H         1 <0>         0.1494
     56 H21        -6.5695   -1.0183   -3.3529 H         1 <0>         0.1462
     57 H22        -6.2296    3.7484   -3.6188 H         1 <0>         0.1691
     58 H23        -3.1270    7.2679   -4.7331 H         1 <0>         0.4215
@<TRIPOS>BOND
     1    1    2 1
     2    1   36 1
     3    1   37 1
     4    1   38 1
     5    2    3 1
     6    2   39 1
     7    2   40 1
     8    3   12 am
     9    3    4 1
    10    4    9 ar
    11    4    5 ar
    12    5    6 ar
    13    5   41 1
    14    6    7 ar
    15    6   17 1
    16    7    8 ar
    17    7   16 1
    18    8    9 ar
    19    8   42 1
    20    9   10 1
    21   10   11 1
    22   10   14 1
    23   10   15 1
    24   11   12 1
    25   11   43 1
    26   11   44 1
    27   12   13 2
    28   14   45 1
    29   14   46 1
    30   14   47 1
    31   15   48 1
    32   15   49 1
    33   15   50 1
    34   16   51 1
    35   16   52 1
    36   16   53 1
    37   17   22 ar
    38   17   18 ar
    39   18   19 ar
    40   18   54 1
    41   19   20 ar
    42   19   28 1
    43   20   21 ar
    44   20   55 1
    45   21   22 ar
    46   21   56 1
    47   22   23 1
    48   23   24 1
    49   24   25 1
    50   24   26 1
    51   24   27 1
    52   28   29 2
    53   28   57 1
    54   29   35 1
    55   29   30 1
    56   30   31 2
    57   30   32 am
    58   32   33 am
    59   32   58 1
    60   33   34 2
    61   33   35 1
@<TRIPOS>MOLECULE
CHEMBL88740
   57    57     0     0     0
SMALL
USER_CHARGES

@<TRIPOS>ATOM
      1 C1          0.3950    1.0330   -0.8184 C.3       1 <0>        -0.1479
      2 C2          0.2566   -0.4567   -0.4983 C.3       1 <0>         0.0603
      3 O1         -1.1237   -0.7787   -0.3165 O.3       1 <0>        -0.3292
      4 C3         -1.4218   -2.0699   -0.0243 C.ar      1 <0>         0.1022
      5 C4         -1.6667   -2.9758   -1.0437 C.ar      1 <0>        -0.0896
      6 C5         -1.9701   -4.2903   -0.7451 C.ar      1 <0>        -0.1036
      7 C6         -2.0326   -4.7150    0.5726 C.ar      1 <0>        -0.0761
      8 C7         -1.7925   -3.8303    1.6006 C.ar      1 <0>        -0.0930
      9 C8         -1.4781   -2.4962    1.3134 C.ar      1 <0>        -0.0503
     10 C9         -1.2150   -1.5485    2.4024 C.2       1 <0>        -0.0914
     11 C10        -0.0359   -1.5947    3.0718 C.2       1 <0>        -0.1046
     12 C11         0.9345   -2.5513    2.7220 C.2       1 <0>        -0.1497
     13 C12         2.1200   -2.5979    3.3951 C.2       1 <0>        -0.0826
     14 C13         3.0875   -3.5516    3.0464 C.2       1 <0>        -0.0790
     15 C14         4.2742   -3.5982    3.7201 C.2       1 <0>        -0.1379
     16 C15         5.3036   -4.4436    3.2726 C.2       1 <0>         0.4401
     17 O2          5.1687   -5.1083    2.1245 O.co2     1 <0>        -0.6909
     18 O3          6.4154   -4.5811    3.9960 O.co2     1 <0>        -0.7158
     19 C16         2.8173   -4.5249    1.9280 C.3       1 <0>        -0.0983
     20 C17        -2.2545   -0.5237    2.7770 C.3       1 <0>        -0.1029
     21 C18        -2.3653   -6.1518    0.8823 C.3       1 <0>        -0.0543
     22 C19        -1.2092   -6.7874    1.6572 C.3       1 <0>        -0.1477
     23 C20        -3.6388   -6.2095    1.7283 C.3       1 <0>        -0.1433
     24 C21        -1.6024   -2.5265   -2.4807 C.3       1 <0>        -0.0560
     25 C22        -0.5304   -3.3306   -3.2190 C.3       1 <0>        -0.1451
     26 C23        -2.9604   -2.7543   -3.1475 C.3       1 <0>        -0.1394
     27 H1          1.4479    1.2786   -0.9570 H         1 <0>         0.0737
     28 H2         -0.1546    1.2610   -1.7316 H         1 <0>         0.0609
     29 H3         -0.0097    1.6208    0.0056 H         1 <0>         0.0631
     30 H4          0.6613   -1.0444   -1.3223 H         1 <0>         0.0506
     31 H5          0.8062   -0.6847    0.4149 H         1 <0>         0.0582
     32 H6         -2.1603   -4.9916   -1.5441 H         1 <0>         0.1218
     33 H7         -1.8426   -4.1657    2.6259 H         1 <0>         0.1248
     34 H8          0.1577   -0.8972    3.8732 H         1 <0>         0.1146
     35 H9          0.7409   -3.2489    1.9205 H         1 <0>         0.1209
     36 H10         2.3137   -1.9003    4.1966 H         1 <0>         0.1109
     37 H11         4.4217   -2.9852    4.5971 H         1 <0>         0.1079
     38 H12         3.2458   -4.1422    1.0018 H         1 <0>         0.0632
     39 H13         3.2694   -5.4875    2.1670 H         1 <0>         0.0946
     40 H14         1.7413   -4.6491    1.8065 H         1 <0>         0.0320
     41 H15        -2.9133   -0.9370    3.5407 H         1 <0>         0.0641
     42 H16        -1.7623    0.3678    3.1656 H         1 <0>         0.0626
     43 H17        -2.8397   -0.2609    1.8958 H         1 <0>         0.0649
     44 H18        -2.5222   -6.6971   -0.0483 H         1 <0>         0.0757
     45 H19        -1.4498   -7.8266    1.8812 H         1 <0>         0.0571
     46 H20        -0.3018   -6.7463    1.0545 H         1 <0>         0.0602
     47 H21        -1.0522   -6.2420    2.5878 H         1 <0>         0.0586
     48 H22        -4.4625   -5.7567    1.1763 H         1 <0>         0.0539
     49 H23        -3.8795   -7.2487    1.9523 H         1 <0>         0.0568
     50 H24        -3.4819   -5.6641    2.6589 H         1 <0>         0.0568
     51 H25        -1.3521   -1.4663   -2.5190 H         1 <0>         0.0830
     52 H26        -0.7807   -4.3908   -3.1807 H         1 <0>         0.0568
     53 H27        -0.4839   -3.0056   -4.2584 H         1 <0>         0.0569
     54 H28         0.4371   -3.1683   -2.7439 H         1 <0>         0.0558
     55 H29        -3.7241   -2.1814   -2.6215 H         1 <0>         0.0548
     56 H30        -2.9139   -2.4293   -4.1869 H         1 <0>         0.0558
     57 H31        -3.2108   -3.8144   -3.1092 H         1 <0>         0.0548
@<TRIPOS>BOND
     1    1    2 1
     2    1   27 1
     3    1   28 1
     4    1   29 1
     5    2    3 1
     6    2   30 1
     7    2   31 1
     8    3    4 1
     9    4    9 ar
    10    4    5 ar
    11    5    6 ar
    12    5   24 1
    13    6    7 ar
    14    6   32 1
    15    7    8 ar
    16    7   21 1
    17    8    9 ar
    18    8   33 1
    19    9   10 1
    20   10   11 2
    21   10   20 1
    22   11   12 1
    23   11   34 1
    24   12   13 2
    25   12   35 1
    26   13   14 1
    27   13   36 1
    28   14   15 2
    29   14   19 1
    30   15   16 1
    31   15   37 1
    32   16   17 2
    33   16   18 1
    34   19   38 1
    35   19   39 1
    36   19   40 1
    37   20   41 1
    38   20   42 1
    39   20   43 1
    40   21   22 1
    41   21   23 1
    42   21   44 1
    43   22   45 1
    44   22   46 1
    45   22   47 1
    46   23   48 1
    47   23   49 1
    48   23   50 1
    49   24   25 1
    50   24   26 1
    51   24   51 1
    52   25   52 1
    53   25   53 1
    54   25   54 1
    55   26   55 1
    56   26   56 1
    57   26   57 1
@<TRIPOS>MOLECULE
CHEMBL36464
   53    55     0     0     0
SMALL
USER_CHARGES

@<TRIPOS>ATOM
      1 C1         -0.6726    1.3902    0.0708 C.3       1 <0>        -0.1099
      2 C2         -0.1822   -0.0338    0.0192 C.2       1 <0>        -0.1086
      3 C3          0.1237   -0.6811    1.1572 C.2       1 <0>        -0.0710
      4 C4          0.1262    0.0434    2.4378 C.ar      1 <0>        -0.0788
      5 C5         -0.2630   -0.6105    3.6127 C.ar      1 <0>        -0.1198
      6 C6         -0.2607    0.0618    4.8008 C.ar      1 <0>        -0.0906
      7 C7          0.1303    1.4051    4.8441 C.ar      1 <0>        -0.1230
      8 C8          0.5195    2.0590    3.6692 C.ar      1 <0>        -0.0920
      9 C9          0.5233    1.3851    2.4822 C.ar      1 <0>        -0.1217
     10 C10         0.1319    2.1305    6.1256 C.2       1 <0>         0.5169
     11 O1         -0.2087    1.5591    7.1524 O.co2     1 <0>        -0.6877
     12 O2          0.4736    3.3046    6.1635 O.co2     1 <0>        -0.6873
     13 C11        -0.0380   -0.7165   -1.2780 C.ar      1 <0>        -0.0267
     14 C12        -1.1655   -1.1614   -1.9683 C.ar      1 <0>        -0.0961
     15 C13        -1.0335   -1.8018   -3.1899 C.ar      1 <0>        -0.0586
     16 C14         0.2203   -1.9990   -3.7301 C.ar      1 <0>        -0.0556
     17 C15         1.3480   -1.5615   -3.0447 C.ar      1 <0>        -0.1108
     18 C16         1.2305   -0.9195   -1.8315 C.ar      1 <0>        -0.0273
     19 Cl1         2.6479   -0.3715   -0.9922 Cl        1 <0>        -0.0611
     20 C17         0.4307   -2.6736   -5.0610 C.3       1 <0>        -0.0216
     21 C18        -0.8132   -3.4606   -5.4677 C.3       1 <0>        -0.1116
     22 C19        -2.0299   -2.5344   -5.3559 C.3       1 <0>        -0.1118
     23 C20        -2.2932   -2.2621   -3.8764 C.3       1 <0>        -0.0225
     24 C21        -2.7919   -3.5450   -3.2083 C.3       1 <0>        -0.1406
     25 C22        -3.3641   -1.1772   -3.7459 C.3       1 <0>        -0.1440
     26 C23         0.7259   -1.6127   -6.1232 C.3       1 <0>        -0.1401
     27 C24         1.6213   -3.6293   -4.9595 C.3       1 <0>        -0.1437
     28 H1          0.1792    2.0694    0.0351 H         1 <0>         0.0699
     29 H2         -1.3252    1.5809   -0.7812 H         1 <0>         0.0550
     30 H3         -1.2265    1.5505    0.9958 H         1 <0>         0.0777
     31 H4          0.3676   -1.7329    1.1314 H         1 <0>         0.1133
     32 H5         -0.5654   -1.6467    3.5792 H         1 <0>         0.1137
     33 H6         -0.5610   -0.4427    5.7073 H         1 <0>         0.1259
     34 H7          0.8213    3.0955    3.7027 H         1 <0>         0.1259
     35 H8          0.8278    1.8884    1.5764 H         1 <0>         0.1229
     36 H9         -2.1480   -1.0059   -1.5477 H         1 <0>         0.1321
     37 H10         2.3273   -1.7231   -3.4703 H         1 <0>         0.1314
     38 H11        -0.7087   -3.8068   -6.4960 H         1 <0>         0.0678
     39 H12        -0.9403   -4.3153   -4.8033 H         1 <0>         0.0698
     40 H13        -1.8254   -1.5959   -5.8713 H         1 <0>         0.0695
     41 H14        -2.9003   -3.0162   -5.8012 H         1 <0>         0.0679
     42 H15        -2.9997   -3.3496   -2.1562 H         1 <0>         0.0579
     43 H16        -3.7035   -3.8812   -3.7023 H         1 <0>         0.0590
     44 H17        -2.0278   -4.3180   -3.2902 H         1 <0>         0.0584
     45 H18        -3.0090   -0.2582   -4.2121 H         1 <0>         0.0572
     46 H19        -4.2773   -1.5066   -4.2416 H         1 <0>         0.0589
     47 H20        -3.5690   -0.9939   -2.6912 H         1 <0>         0.0609
     48 H21         1.6250   -1.0619   -5.8465 H         1 <0>         0.0566
     49 H22         0.8788   -2.0968   -7.0877 H         1 <0>         0.0589
     50 H23        -0.1157   -0.9234   -6.1920 H         1 <0>         0.0591
     51 H24         1.4195   -4.3812   -4.1966 H         1 <0>         0.0576
     52 H25         1.7768   -4.1194   -5.9206 H         1 <0>         0.0590
     53 H26         2.5156   -3.0680   -4.6889 H         1 <0>         0.0592
@<TRIPOS>BOND
     1    1    2 1
     2    1   28 1
     3    1   29 1
     4    1   30 1
     5    2    3 2
     6    2   13 1
     7    3    4 1
     8    3   31 1
     9    4    9 ar
    10    4    5 ar
    11    5    6 ar
    12    5   32 1
    13    6    7 ar
    14    6   33 1
    15    7    8 ar
    16    7   10 1
    17    8    9 ar
    18    8   34 1
    19    9   35 1
    20   10   11 2
    21   10   12 1
    22   13   18 ar
    23   13   14 ar
    24   14   15 ar
    25   14   36 1
    26   15   23 1
    27   15   16 ar
    28   16   17 ar
    29   16   20 1
    30   17   18 ar
    31   17   37 1
    32   18   19 1
    33   20   21 1
    34   20   26 1
    35   20   27 1
    36   21   22 1
    37   21   38 1
    38   21   39 1
    39   22   23 1
    40   22   40 1
    41   22   41 1
    42   23   24 1
    43   23   25 1
    44   24   42 1
    45   24   43 1
    46   24   44 1
    47   25   45 1
    48   25   46 1
    49   25   47 1
    50   26   48 1
    51   26   49 1
    52   26   50 1
    53   27   51 1
    54   27   52 1
    55   27   53 1
@<TRIPOS>MOLECULE
CHEMBL105805
   50    52     0     0     0
SMALL
USER_CHARGES

@<TRIPOS>ATOM
      1 C1          0.2231    1.4937    0.0126 C.3       1 <0>        -0.1029
      2 C2         -0.2009    0.0476    0.0138 C.ar      1 <0>        -0.1185
      3 C3         -0.5069   -0.5853   -1.1723 C.ar      1 <0>        -0.0874
      4 C4         -0.8969   -1.9185   -1.1830 C.ar      1 <0>        -0.0988
      5 C5         -0.9765   -2.6176    0.0014 C.ar      1 <0>        -0.0279
      6 C6         -0.6732   -1.9823    1.1974 C.ar      1 <0>        -0.1872
      7 C7         -0.2797   -0.6545    1.2079 C.ar      1 <0>         0.1265
      8 O1          0.0222   -0.0408    2.3822 O.3       1 <0>        -0.2564
      9 C8         -0.0671   -0.7695    3.5229 C.ar      1 <0>         0.0632
     10 C9          1.0396   -1.4747    3.9834 C.ar      1 <0>        -0.1401
     11 C10         0.9537   -2.2153    5.1402 C.ar      1 <0>        -0.0747
     12 C11        -0.2493   -2.2577    5.8533 C.ar      1 <0>        -0.1250
     13 C12        -1.3599   -1.5463    5.3865 C.ar      1 <0>        -0.0746
     14 C13        -1.2634   -0.8045    4.2314 C.ar      1 <0>        -0.1402
     15 C14        -0.3463   -3.0490    7.0912 C.2       1 <0>         0.5187
     16 O2          0.6258   -3.6707    7.4975 O.co2     1 <0>        -0.6842
     17 O3         -1.3990   -3.0848    7.7134 O.co2     1 <0>        -0.6841
     18 C15        -1.3766   -4.0686    0.0609 C.3       1 <0>        -0.0234
     19 C16        -2.0771   -4.4863   -1.2304 C.3       1 <0>        -0.1100
     20 C17        -1.1993   -4.0658   -2.4150 C.3       1 <0>        -0.1111
     21 C18        -1.2229   -2.5420   -2.5151 C.3       1 <0>        -0.0173
     22 C19        -2.6150   -2.0870   -2.9580 C.3       1 <0>        -0.1385
     23 C20        -0.1917   -2.0884   -3.5504 C.3       1 <0>        -0.1409
     24 C21        -0.1268   -4.9289    0.2578 C.3       1 <0>        -0.1396
     25 C22        -2.3260   -4.2821    1.2416 C.3       1 <0>        -0.1442
     26 H1          1.3063    1.5546   -0.0922 H         1 <0>         0.0652
     27 H2         -0.2522    2.0110   -0.8209 H         1 <0>         0.0610
     28 H3         -0.0782    1.9614    0.9499 H         1 <0>         0.0694
     29 H4         -0.4430   -0.0392   -2.1018 H         1 <0>         0.1253
     30 H5         -0.7404   -2.5287    2.1265 H         1 <0>         0.1334
     31 H6          1.9678   -1.4414    3.4323 H         1 <0>         0.1214
     32 H7          1.8134   -2.7632    5.4967 H         1 <0>         0.1341
     33 H8         -2.2905   -1.5763    5.9338 H         1 <0>         0.1341
     34 H9         -2.1190   -0.2518    3.8724 H         1 <0>         0.1215
     35 H10        -2.2140   -5.5676   -1.2405 H         1 <0>         0.0663
     36 H11        -3.0465   -3.9925   -1.2984 H         1 <0>         0.0681
     37 H12        -0.1768   -4.4073   -2.2536 H         1 <0>         0.0684
     38 H13        -1.5911   -4.5003   -3.3347 H         1 <0>         0.0646
     39 H14        -2.6302   -1.0010   -3.0494 H         1 <0>         0.0544
     40 H15        -2.8545   -2.5362   -3.9218 H         1 <0>         0.0551
     41 H16        -3.3519   -2.3997   -2.2182 H         1 <0>         0.0580
     42 H17         0.8030   -2.4020   -3.2339 H         1 <0>         0.0559
     43 H18        -0.4243   -2.5376   -4.5159 H         1 <0>         0.0553
     44 H19        -0.2192   -1.0023   -3.6388 H         1 <0>         0.0572
     45 H20         0.3653   -4.6472    1.1887 H         1 <0>         0.0585
     46 H21        -0.4123   -5.9799    0.3013 H         1 <0>         0.0585
     47 H22         0.5571   -4.7724   -0.5765 H         1 <0>         0.0567
     48 H23        -3.2138   -3.6635    1.1104 H         1 <0>         0.0556
     49 H24        -2.6179   -5.3313    1.2880 H         1 <0>         0.0586
     50 H25        -1.8227   -4.0037    2.1675 H         1 <0>         0.0621
@<TRIPOS>BOND
     1    1    2 1
     2    1   26 1
     3    1   27 1
     4    1   28 1
     5    2    7 ar
     6    2    3 ar
     7    3    4 ar
     8    3   29 1
     9    4   21 1
    10    4    5 ar
    11    5    6 ar
    12    5   18 1
    13    6    7 ar
    14    6   30 1
    15    7    8 1
    16    8    9 1
    17    9   14 ar
    18    9   10 ar
    19   10   11 ar
    20   10   31 1
    21   11   12 ar
    22   11   32 1
    23   12   13 ar
    24   12   15 1
    25   13   14 ar
    26   13   33 1
    27   14   34 1
    28   15   16 2
    29   15   17 1
    30   18   19 1
    31   18   24 1
    32   18   25 1
    33   19   20 1
    34   19   35 1
    35   19   36 1
    36   20   21 1
    37   20   37 1
    38   20   38 1
    39   21   22 1
    40   21   23 1
    41   22   39 1
    42   22   40 1
    43   22   41 1
    44   23   42 1
    45   23   43 1
    46   23   44 1
    47   24   45 1
    48   24   46 1
    49   24   47 1
    50   25   48 1
    51   25   49 1
    52   25   50 1
@<TRIPOS>MOLECULE
CHEMBL60090
   59    62     0     0     0
SMALL
USER_CHARGES

@<TRIPOS>ATOM
      1 C1         -0.0187    1.5258    0.0104 C.3       1 <0>        -0.1442
      2 C2          0.0021   -0.0041    0.0020 C.3       1 <0>        -0.0225
      3 C3          0.6935   -0.4914   -1.2697 C.3       1 <0>        -0.1129
      4 C4          0.8989   -2.0067   -1.1582 C.3       1 <0>        -0.1097
      5 C5          1.9621   -2.2714   -0.0941 C.3       1 <0>        -0.0222
      6 C6          1.6287   -1.5413    1.1806 C.ar      1 <0>        -0.0613
      7 C7          0.7315   -0.4976    1.2240 C.ar      1 <0>        -0.0645
      8 C8          0.4736    0.1376    2.4317 C.ar      1 <0>        -0.1152
      9 C9          1.1061   -0.2707    3.5879 C.ar      1 <0>        -0.1038
     10 C10         2.0037   -1.3209    3.5450 C.ar      1 <0>        -0.0698
     11 C11         2.2628   -1.9521    2.3458 C.ar      1 <0>        -0.1149
     12 C12         2.6974   -1.7746    4.8036 C.3       1 <0>         0.0164
     13 C13         1.6553   -2.2090    5.8350 C.3       1 <0>        -0.1097
     14 C14         2.3344   -2.4975    7.1769 C.3       1 <0>        -0.1116
     15 C15         2.8089   -1.1687    7.7847 C.3       1 <0>        -0.0343
     16 C16         3.5243   -0.3962    6.7246 C.2       1 <0>        -0.1739
     17 C17         3.5118   -0.6215    5.3828 C.2       1 <0>        -0.0954
     18 C18         4.2710    0.2463    4.5981 C.2       1 <0>        -0.1683
     19 C19         4.9686    1.2495    5.1782 C.2       1 <0>        -0.0994
     20 S1          4.5807    1.0157    6.9064 S.3       1 <0>         0.0175
     21 C20         5.8447    2.2930    4.5344 C.3       1 <0>        -0.0172
     22 C21         5.0009    3.5187    4.1790 C.3       1 <0>        -0.1742
     23 C22         5.8770    4.5623    3.5352 C.2       1 <0>         0.4919
     24 O1          7.0661    4.3457    3.3753 O.co2     1 <0>        -0.6978
     25 O2          5.3966    5.6231    3.1741 O.co2     1 <0>        -0.7031
     26 C23         3.3212   -1.7931   -0.6088 C.3       1 <0>        -0.1411
     27 C24         2.0307   -3.7736    0.1880 C.3       1 <0>        -0.1404
     28 C25        -1.4352   -0.5282    0.0264 C.3       1 <0>        -0.1370
     29 H1          1.0039    1.9031    0.0027 H         1 <0>         0.0599
     30 H2         -0.5459    1.8868   -0.8726 H         1 <0>         0.0565
     31 H3         -0.5289    1.8773    0.9072 H         1 <0>         0.0585
     32 H4          0.0697   -0.2681   -2.1352 H         1 <0>         0.0653
     33 H5          1.6591    0.0032   -1.3751 H         1 <0>         0.0705
     34 H6         -0.0373   -2.4838   -0.8684 H         1 <0>         0.0670
     35 H7          1.2323   -2.4035   -2.1171 H         1 <0>         0.0650
     36 H8         -0.2276    0.9584    2.4660 H         1 <0>         0.1193
     37 H9          0.9003    0.2283    4.5234 H         1 <0>         0.1166
     38 H10         2.9646   -2.7724    2.3130 H         1 <0>         0.1185
     39 H11         3.3588   -2.6104    4.5752 H         1 <0>         0.0832
     40 H12         0.9214   -1.4136    5.9647 H         1 <0>         0.0677
     41 H13         1.1520   -3.1096    5.4833 H         1 <0>         0.0662
     42 H14         1.6234   -2.9748    7.8512 H         1 <0>         0.0707
     43 H15         3.1902   -3.1540    7.0198 H         1 <0>         0.0669
     44 H16         1.9495   -0.5987    8.1379 H         1 <0>         0.0772
     45 H17         3.4861   -1.3660    8.6157 H         1 <0>         0.0759
     46 H18         4.3021    0.1171    3.5263 H         1 <0>         0.1247
     47 H19         6.6335    2.5836    5.2283 H         1 <0>         0.0774
     48 H20         6.2909    1.8838    3.6279 H         1 <0>         0.0853
     49 H21         4.2121    3.2281    3.4851 H         1 <0>         0.0593
     50 H22         4.5547    3.9279    5.0855 H         1 <0>         0.0581
     51 H23         3.2741   -0.7248   -0.8203 H         1 <0>         0.0602
     52 H24         4.0829   -1.9804    0.1481 H         1 <0>         0.0567
     53 H25         3.5749   -2.3332   -1.5210 H         1 <0>         0.0563
     54 H26         2.2908   -4.3038   -0.7282 H         1 <0>         0.0559
     55 H27         2.7886   -3.9666    0.9472 H         1 <0>         0.0584
     56 H28         1.0614   -4.1207    0.5459 H         1 <0>         0.0546
     57 H29        -1.9692   -0.1652   -0.8518 H         1 <0>         0.0561
     58 H30        -1.4246   -1.6181    0.0205 H         1 <0>         0.0563
     59 H31        -1.9356   -0.1745    0.9278 H         1 <0>         0.0547
@<TRIPOS>BOND
     1    1    2 1
     2    1   29 1
     3    1   30 1
     4    1   31 1
     5    2    7 1
     6    2    3 1
     7    2   28 1
     8    3    4 1
     9    3   32 1
    10    3   33 1
    11    4    5 1
    12    4   34 1
    13    4   35 1
    14    5    6 1
    15    5   26 1
    16    5   27 1
    17    6   11 ar
    18    6    7 ar
    19    7    8 ar
    20    8    9 ar
    21    8   36 1
    22    9   10 ar
    23    9   37 1
    24   10   11 ar
    25   10   12 1
    26   11   38 1
    27   12   17 1
    28   12   13 1
    29   12   39 1
    30   13   14 1
    31   13   40 1
    32   13   41 1
    33   14   15 1
    34   14   42 1
    35   14   43 1
    36   15   16 1
    37   15   44 1
    38   15   45 1
    39   16   20 1
    40   16   17 2
    41   17   18 1
    42   18   19 2
    43   18   46 1
    44   19   20 1
    45   19   21 1
    46   21   22 1
    47   21   47 1
    48   21   48 1
    49   22   23 1
    50   22   49 1
    51   22   50 1
    52   23   24 2
    53   23   25 1
    54   26   51 1
    55   26   52 1
    56   26   53 1
    57   27   54 1
    58   27   55 1
    59   27   56 1
    60   28   57 1
    61   28   58 1
    62   28   59 1
@<TRIPOS>MOLECULE
CHEMBL60090__1
   59    62     0     0     0
SMALL
USER_CHARGES

@<TRIPOS>ATOM
      1 C1         -0.0187    1.5258    0.0104 C.3       1 <0>        -0.1405
      2 C2          0.0021   -0.0041    0.0020 C.3       1 <0>        -0.0227
      3 C3          0.6935   -0.4914   -1.2697 C.3       1 <0>        -0.1100
      4 C4          0.8989   -2.0067   -1.1582 C.3       1 <0>        -0.1128
      5 C5          1.9621   -2.2714   -0.0941 C.3       1 <0>        -0.0221
      6 C6          1.6287   -1.5413    1.1806 C.ar      1 <0>        -0.0604
      7 C7          0.7315   -0.4976    1.2240 C.ar      1 <0>        -0.0655
      8 C8          0.4736    0.1376    2.4317 C.ar      1 <0>        -0.1169
      9 C9          1.1061   -0.2707    3.5879 C.ar      1 <0>        -0.1045
     10 C10         2.0037   -1.3209    3.5450 C.ar      1 <0>        -0.0683
     11 C11         2.2628   -1.9521    2.3458 C.ar      1 <0>        -0.1140
     12 C12         2.6974   -1.7746    4.8036 C.3       1 <0>         0.0152
     13 C13         3.5000   -0.6142    5.3932 C.3       1 <0>        -0.1089
     14 C14         4.0591   -1.0064    6.7638 C.3       1 <0>        -0.1123
     15 C15         2.8961   -1.0933    7.7638 C.3       1 <0>        -0.0341
     16 C16         1.7972   -1.8893    7.1382 C.2       1 <0>        -0.1739
     17 C17         1.6583   -2.2239    5.8267 C.2       1 <0>        -0.0951
     18 C18         0.5365   -2.9822    5.4925 C.2       1 <0>        -0.1683
     19 C19        -0.3461   -3.3452    6.4511 C.2       1 <0>        -0.0992
     20 S1          0.3782   -2.6166    7.9128 S.3       1 <0>         0.0176
     21 C20        -1.6116   -4.1528    6.3201 C.3       1 <0>        -0.0171
     22 C21        -1.2910   -5.6372    6.5067 C.3       1 <0>        -0.1750
     23 C22        -2.5566   -6.4448    6.3756 C.2       1 <0>         0.4918
     24 O1         -3.6167   -5.8850    6.1536 O.co2     1 <0>        -0.6976
     25 O2         -2.5203   -7.6579    6.4916 O.co2     1 <0>        -0.7032
     26 C23         2.0307   -3.7736    0.1880 C.3       1 <0>        -0.1440
     27 C24         3.3212   -1.7931   -0.6088 C.3       1 <0>        -0.1374
     28 C25        -1.4352   -0.5282    0.0264 C.3       1 <0>        -0.1407
     29 H1          1.0039    1.9031    0.0027 H         1 <0>         0.0546
     30 H2         -0.5459    1.8868   -0.8726 H         1 <0>         0.0560
     31 H3         -0.5289    1.8773    0.9072 H         1 <0>         0.0583
     32 H4          0.0697   -0.2681   -2.1352 H         1 <0>         0.0650
     33 H5          1.6591    0.0032   -1.3751 H         1 <0>         0.0670
     34 H6         -0.0373   -2.4838   -0.8684 H         1 <0>         0.0703
     35 H7          1.2323   -2.4035   -2.1171 H         1 <0>         0.0655
     36 H8         -0.2276    0.9584    2.4660 H         1 <0>         0.1184
     37 H9          0.9008    0.2287    4.5232 H         1 <0>         0.1165
     38 H10         2.9646   -2.7724    2.3130 H         1 <0>         0.1193
     39 H11         3.3660   -2.6042    4.5735 H         1 <0>         0.0837
     40 H12         4.3239   -0.3673    4.7236 H         1 <0>         0.0660
     41 H13         2.8518    0.2553    5.5023 H         1 <0>         0.0673
     42 H14         4.5538   -1.9751    6.6933 H         1 <0>         0.0674
     43 H15         4.7723   -0.2525    7.0970 H         1 <0>         0.0708
     44 H16         3.2324   -1.5854    8.6765 H         1 <0>         0.0763
     45 H17         2.5367   -0.0911    7.9973 H         1 <0>         0.0769
     46 H18         0.3721   -3.2796    4.4673 H         1 <0>         0.1248
     47 H19        -2.3248   -3.8367    7.0814 H         1 <0>         0.0773
     48 H20        -2.0422   -3.9956    5.3312 H         1 <0>         0.0852
     49 H21        -0.5778   -5.9533    5.7454 H         1 <0>         0.0594
     50 H22        -0.8604   -5.7944    7.4956 H         1 <0>         0.0587
     51 H23         2.2908   -4.3038   -0.7282 H         1 <0>         0.0567
     52 H24         2.7886   -3.9666    0.9472 H         1 <0>         0.0586
     53 H25         1.0614   -4.1207    0.5459 H         1 <0>         0.0591
     54 H26         3.2741   -0.7248   -0.8203 H         1 <0>         0.0566
     55 H27         4.0829   -1.9804    0.1481 H         1 <0>         0.0550
     56 H28         3.5749   -2.3332   -1.5210 H         1 <0>         0.0562
     57 H29        -1.9692   -0.1652   -0.8518 H         1 <0>         0.0563
     58 H30        -1.4246   -1.6181    0.0205 H         1 <0>         0.0599
     59 H31        -1.9356   -0.1745    0.9278 H         1 <0>         0.0567
@<TRIPOS>BOND
     1    1    2 1
     2    1   29 1
     3    1   30 1
     4    1   31 1
     5    2    7 1
     6    2    3 1
     7    2   28 1
     8    3    4 1
     9    3   32 1
    10    3   33 1
    11    4    5 1
    12    4   34 1
    13    4   35 1
    14    5    6 1
    15    5   26 1
    16    5   27 1
    17    6   11 ar
    18    6    7 ar
    19    7    8 ar
    20    8    9 ar
    21    8   36 1
    22    9   10 ar
    23    9   37 1
    24   10   11 ar
    25   10   12 1
    26   11   38 1
    27   12   17 1
    28   12   13 1
    29   12   39 1
    30   13   14 1
    31   13   40 1
    32   13   41 1
    33   14   15 1
    34   14   42 1
    35   14   43 1
    36   15   16 1
    37   15   44 1
    38   15   45 1
    39   16   20 1
    40   16   17 2
    41   17   18 1
    42   18   19 2
    43   18   46 1
    44   19   20 1
    45   19   21 1
    46   21   22 1
    47   21   47 1
    48   21   48 1
    49   22   23 1
    50   22   49 1
    51   22   50 1
    52   23   24 2
    53   23   25 1
    54   26   51 1
    55   26   52 1
    56   26   53 1
    57   27   54 1
    58   27   55 1
    59   27   56 1
    60   28   57 1
    61   28   58 1
    62   28   59 1
@<TRIPOS>MOLECULE
CHEMBL333304
   45    47     0     0     0
SMALL
USER_CHARGES

@<TRIPOS>ATOM
      1 C1         -0.0178    1.4608    0.0101 C.3       1 <0>         0.0556
      2 N1          0.0021   -0.0041    0.0020 N.pl3     1 <0>        -0.5910
      3 C2          0.0241   -0.7433    1.2666 C.3       1 <0>         0.1145
      4 C3         -1.4105   -1.0203    1.7205 C.3       1 <0>         0.0306
      5 O1         -2.0465   -1.8923    0.7840 O.3       1 <0>        -0.3203
      6 C4         -3.3348   -2.2400    1.0412 C.ar      1 <0>         0.1254
      7 C5         -3.9756   -1.7474    2.1688 C.ar      1 <0>        -0.2040
      8 C6         -5.2854   -2.1021    2.4278 C.ar      1 <0>        -0.0654
      9 C7         -5.9575   -2.9475    1.5646 C.ar      1 <0>        -0.1221
     10 C8         -5.3210   -3.4402    0.4404 C.ar      1 <0>        -0.0603
     11 C9         -4.0133   -3.0837    0.1736 C.ar      1 <0>        -0.1461
     12 C10        -7.3862   -3.3331    1.8499 C.3       1 <0>        -0.0555
     13 C11        -8.3282   -2.3252    1.1885 C.3       1 <0>        -0.0697
     14 H1         -8.0909   -1.3060    1.4933 H         1 <0>         0.1596
     15 C12        -9.7859   -2.6623    1.4695 C.2       1 <0>         0.5292
     16 O2        -10.2448   -2.6686    2.5917 O.2       1 <0>        -0.4534
     17 N2        -10.5170   -2.9474    0.4052 N.am      1 <0>        -0.6890
     18 C13       -10.0318   -2.9469   -0.8502 C.2       1 <0>         0.5657
     19 O3        -10.6238   -3.1938   -1.8830 O.2       1 <0>        -0.4109
     20 S1         -8.3132   -2.4970   -0.6448 S.3       1 <0>        -0.1554
     21 C14         0.0000   -0.6925   -1.2055 C.ar      1 <0>         0.4449
     22 C15         0.0132   -2.0839   -1.2060 C.ar      1 <0>        -0.1767
     23 C16         0.0110   -2.7560   -2.4146 C.ar      1 <0>         0.0308
     24 C17        -0.0044   -2.0117   -3.5870 C.ar      1 <0>        -0.1664
     25 C18        -0.0170   -0.6335   -3.5127 C.ar      1 <0>         0.1393
     26 N3         -0.0200   -0.0186   -2.3450 N.ar      1 <0>        -0.5040
     27 H2          1.0048    1.8381    0.0023 H         1 <0>         0.0863
     28 H3         -0.5450    1.8219   -0.8730 H         1 <0>         0.0733
     29 H4         -0.5280    1.8123    0.9069 H         1 <0>         0.1054
     30 H5          0.5496   -1.6879    1.1262 H         1 <0>         0.1083
     31 H6          0.5371   -0.1514    2.0246 H         1 <0>         0.1284
     32 H7         -1.3961   -1.4911    2.7035 H         1 <0>         0.0918
     33 H8         -1.9619   -0.0816    1.7754 H         1 <0>         0.0738
     34 H9         -3.4507   -1.0876    2.8437 H         1 <0>         0.1287
     35 H10        -5.7846   -1.7188    3.3055 H         1 <0>         0.1320
     36 H11        -5.8481   -4.1007   -0.2321 H         1 <0>         0.1384
     37 H12        -3.5179   -3.4652   -0.7070 H         1 <0>         0.1298
     38 H13        -7.5805   -4.3285    1.4504 H         1 <0>         0.0942
     39 H14        -7.5539   -3.3347    2.9269 H         1 <0>         0.1083
     40 H15       -11.4523   -3.1688    0.5362 H         1 <0>         0.4215
     41 H16         0.0254   -2.6314   -0.2752 H         1 <0>         0.1791
     42 H17         0.0214   -3.8355   -2.4461 H         1 <0>         0.1728
     43 H18        -0.0062   -2.5062   -4.5471 H         1 <0>         0.1796
     44 H19        -0.0287   -0.0508   -4.4219 H         1 <0>         0.2049
     45 H20        -0.0329    0.9510   -2.3209 H         1 <0>         0.4380
@<TRIPOS>BOND
     1    1    2 1
     2    1   27 1
     3    1   28 1
     4    1   29 1
     5    2    3 1
     6    2   21 1
     7    3    4 1
     8    3   30 1
     9    3   31 1
    10    4    5 1
    11    4   32 1
    12    4   33 1
    13    5    6 1
    14    6   11 ar
    15    6    7 ar
    16    7    8 ar
    17    7   34 1
    18    8    9 ar
    19    8   35 1
    20    9   10 ar
    21    9   12 1
    22   10   11 ar
    23   10   36 1
    24   11   37 1
    25   12   13 1
    26   12   38 1
    27   12   39 1
    28   13   14 1
    29   13   20 1
    30   13   15 1
    31   15   16 2
    32   15   17 am
    33   17   18 am
    34   17   40 1
    35   18   19 2
    36   18   20 1
    37   21   26 ar
    38   21   22 ar
    39   22   23 ar
    40   22   41 1
    41   23   24 ar
    42   23   42 1
    43   24   25 ar
    44   24   43 1
    45   25   26 ar
    46   25   44 1
    47   26   45 1
@<TRIPOS>MOLECULE
CHEMBL333304__1
   44    46     0     0     0
SMALL
USER_CHARGES

@<TRIPOS>ATOM
      1 C1         -0.0178    1.4608    0.0101 C.3       1 <0>         0.0945
      2 N1          0.0021   -0.0041    0.0020 N.pl3     1 <0>        -0.6142
      3 C2          0.0241   -0.7433    1.2666 C.3       1 <0>         0.1321
      4 C3         -1.4105   -1.0203    1.7205 C.3       1 <0>         0.0411
      5 O1         -2.0465   -1.8923    0.7840 O.3       1 <0>        -0.2835
      6 C4         -3.3348   -2.2400    1.0412 C.ar      1 <0>         0.1409
      7 C5         -3.9756   -1.7474    2.1688 C.ar      1 <0>        -0.2139
      8 C6         -5.2854   -2.1021    2.4278 C.ar      1 <0>        -0.0668
      9 C7         -5.9575   -2.9475    1.5646 C.ar      1 <0>        -0.1417
     10 C8         -5.3210   -3.4402    0.4404 C.ar      1 <0>        -0.0611
     11 C9         -4.0133   -3.0837    0.1736 C.ar      1 <0>        -0.1489
     12 C10        -7.3862   -3.3331    1.8499 C.3       1 <0>        -0.0487
     13 C11        -8.3282   -2.3252    1.1885 C.3       1 <0>        -0.0711
     14 H1         -8.0909   -1.3060    1.4933 H         1 <0>         0.1601
     15 C12        -9.7859   -2.6623    1.4695 C.2       1 <0>         0.5303
     16 O2        -10.2448   -2.6686    2.5917 O.2       1 <0>        -0.4587
     17 N2        -10.5170   -2.9474    0.4052 N.am      1 <0>        -0.6898
     18 C13       -10.0318   -2.9469   -0.8502 C.2       1 <0>         0.5609
     19 O3        -10.6238   -3.1938   -1.8830 O.2       1 <0>        -0.4172
     20 S1         -8.3132   -2.4970   -0.6448 S.3       1 <0>        -0.1415
     21 C14         0.0000   -0.6925   -1.2055 C.ar      1 <0>         0.4038
     22 C15         0.0901    0.0128   -2.4015 C.ar      1 <0>        -0.2402
     23 C16         0.0870   -0.6849   -3.5956 C.ar      1 <0>        -0.0374
     24 C17        -0.0066   -2.0699   -3.5538 C.ar      1 <0>        -0.2340
     25 C18        -0.0930   -2.7051   -2.3314 C.ar      1 <0>         0.1464
     26 N3         -0.0823   -2.0140   -1.2072 N.ar      1 <0>        -0.5186
     27 H2          1.0048    1.8381    0.0023 H         1 <0>         0.0541
     28 H3         -0.5450    1.8219   -0.8730 H         1 <0>         0.0704
     29 H4         -0.5280    1.8123    0.9069 H         1 <0>         0.0696
     30 H5          0.5496   -1.6879    1.1262 H         1 <0>         0.0964
     31 H6          0.5371   -0.1514    2.0246 H         1 <0>         0.0936
     32 H7         -1.3961   -1.4911    2.7035 H         1 <0>         0.0686
     33 H8         -1.9619   -0.0816    1.7754 H         1 <0>         0.0586
     34 H9         -3.4507   -1.0876    2.8437 H         1 <0>         0.1263
     35 H10        -5.7846   -1.7188    3.3055 H         1 <0>         0.1256
     36 H11        -5.8481   -4.1007   -0.2321 H         1 <0>         0.1327
     37 H12        -3.5179   -3.4652   -0.7070 H         1 <0>         0.1303
     38 H13        -7.5805   -4.3285    1.4504 H         1 <0>         0.0900
     39 H14        -7.5539   -3.3347    2.9269 H         1 <0>         0.1041
     40 H15       -11.4523   -3.1688    0.5362 H         1 <0>         0.4181
     41 H16         0.1612    1.0904   -2.3974 H         1 <0>         0.1282
     42 H17         0.1553   -0.1643   -4.5394 H         1 <0>         0.1296
     43 H18        -0.0120   -2.6441   -4.4685 H         1 <0>         0.1287
     44 H19        -0.1662   -3.7820   -2.2944 H         1 <0>         0.1520
@<TRIPOS>BOND
     1    1    2 1
     2    1   27 1
     3    1   28 1
     4    1   29 1
     5    2    3 1
     6    2   21 1
     7    3    4 1
     8    3   30 1
     9    3   31 1
    10    4    5 1
    11    4   32 1
    12    4   33 1
    13    5    6 1
    14    6   11 ar
    15    6    7 ar
    16    7    8 ar
    17    7   34 1
    18    8    9 ar
    19    8   35 1
    20    9   10 ar
    21    9   12 1
    22   10   11 ar
    23   10   36 1
    24   11   37 1
    25   12   13 1
    26   12   38 1
    27   12   39 1
    28   13   14 1
    29   13   20 1
    30   13   15 1
    31   15   16 2
    32   15   17 am
    33   17   18 am
    34   17   40 1
    35   18   19 2
    36   18   20 1
    37   21   26 ar
    38   21   22 ar
    39   22   23 ar
    40   22   41 1
    41   23   24 ar
    42   23   42 1
    43   24   25 ar
    44   24   43 1
    45   25   26 ar
    46   25   44 1
